
**** 11/24/20 21:22:35 ********* PSpice 9.2 (Mar 2000) ******** ID# 1 ********

 ** Profile: "MAIN-test2"  [ C:\Users\Karan\Documents\PSpice\VLSI\vlsi-MAIN-test2.sim ] 


 ****     CIRCUIT DESCRIPTION


******************************************************************************




** Creating circuit file "vlsi-MAIN-test2.sim.cir" 
** WARNING: THIS AUTOMATICALLY GENERATED FILE MAY BE OVERWRITTEN BY SUBSEQUENT SIMULATIONS

*Libraries: 
* Local Libraries :
.STMLIB ".\VLSI.stl" 
* From [PSPICE NETLIST] section of C:\Program Files\Orcad 9.1\PSpice\PSpice.ini file:
.lib "nom.lib" 

*Analysis directives: 
.TRAN  0 40ms 0 0.1ms 
.PROBE V(*) I(*) W(*) D(*) NOISE(*) 
.INC ".\vlsi-MAIN.net" 



**** INCLUDING vlsi-MAIN.net ****
* source VLSI
M_VEDIC_4x4_1_VEDIC_2x2_1_AND_1_M5         $D_HI $D_HI
+  VEDIC_4x4_1_VEDIC_2x2_1_AND_1_N06579 $D_HI MbreakP           
M_VEDIC_4x4_1_VEDIC_2x2_1_AND_1_M2         VEDIC_4x4_1_VEDIC_2x2_1_AND_1_N06008
+  $D_HI 0 0 MbreakN           
M_VEDIC_4x4_1_VEDIC_2x2_1_AND_1_M4         $D_HI $D_HI
+  VEDIC_4x4_1_VEDIC_2x2_1_AND_1_N06579 $D_HI MbreakP           
M_VEDIC_4x4_1_VEDIC_2x2_1_AND_1_M1         VEDIC_4x4_1_VEDIC_2x2_1_AND_1_N06579
+  $D_HI VEDIC_4x4_1_VEDIC_2x2_1_AND_1_N06008 0 MbreakN           
M_VEDIC_4x4_1_VEDIC_2x2_1_AND_1_M6         $D_HI
+  VEDIC_4x4_1_VEDIC_2x2_1_AND_1_N06579 N14021 $D_HI MbreakP           
M_VEDIC_4x4_1_VEDIC_2x2_1_AND_1_M3         N14021
+  VEDIC_4x4_1_VEDIC_2x2_1_AND_1_N06579 0 0 MbreakN           
M_VEDIC_4x4_1_VEDIC_2x2_1_HA_1_M11         VEDIC_4x4_1_VEDIC_2x2_1_HA_1_N09191
+  VEDIC_4x4_1_VEDIC_2x2_1_N00381 0 0 MbreakN           
M_VEDIC_4x4_1_VEDIC_2x2_1_HA_1_M5         $D_HI VEDIC_4x4_1_VEDIC_2x2_1_N00381
+  VEDIC_4x4_1_VEDIC_2x2_1_HA_1_N06579 $D_HI MbreakP           
M_VEDIC_4x4_1_VEDIC_2x2_1_HA_1_M2         VEDIC_4x4_1_VEDIC_2x2_1_HA_1_N06008
+  VEDIC_4x4_1_VEDIC_2x2_1_N00381 0 0 MbreakN           
M_VEDIC_4x4_1_VEDIC_2x2_1_HA_1_M4         $D_HI VEDIC_4x4_1_VEDIC_2x2_1_N00370
+  VEDIC_4x4_1_VEDIC_2x2_1_HA_1_N06579 $D_HI MbreakP           
M_VEDIC_4x4_1_VEDIC_2x2_1_HA_1_M12         VEDIC_4x4_1_VEDIC_2x2_1_HA_1_N09404
+  VEDIC_4x4_1_VEDIC_2x2_1_N00370 N14028 $D_HI MbreakP           
M_VEDIC_4x4_1_VEDIC_2x2_1_HA_1_M1         VEDIC_4x4_1_VEDIC_2x2_1_HA_1_N06579
+  VEDIC_4x4_1_VEDIC_2x2_1_N00370 VEDIC_4x4_1_VEDIC_2x2_1_HA_1_N06008 0 MbreakN  
+          
M_VEDIC_4x4_1_VEDIC_2x2_1_HA_1_M6         $D_HI
+  VEDIC_4x4_1_VEDIC_2x2_1_HA_1_N06579 VEDIC_4x4_1_VEDIC_2x2_1_N00445 $D_HI
+  MbreakP           
M_VEDIC_4x4_1_VEDIC_2x2_1_HA_1_M13         VEDIC_4x4_1_VEDIC_2x2_1_HA_1_N09404
+  VEDIC_4x4_1_VEDIC_2x2_1_N00381 N14028 $D_HI MbreakP           
M_VEDIC_4x4_1_VEDIC_2x2_1_HA_1_M3         VEDIC_4x4_1_VEDIC_2x2_1_N00445
+  VEDIC_4x4_1_VEDIC_2x2_1_HA_1_N06579 0 0 MbreakN           
M_VEDIC_4x4_1_VEDIC_2x2_1_HA_1_M16         $D_HI VEDIC_4x4_1_VEDIC_2x2_1_N00370
+  VEDIC_4x4_1_VEDIC_2x2_1_HA_1_N11593 $D_HI MbreakP           
M_VEDIC_4x4_1_VEDIC_2x2_1_HA_1_M8         VEDIC_4x4_1_VEDIC_2x2_1_HA_1_N09076
+  VEDIC_4x4_1_VEDIC_2x2_1_HA_1_N11628 0 0 MbreakN           
M_VEDIC_4x4_1_VEDIC_2x2_1_HA_1_M14         $D_HI
+  VEDIC_4x4_1_VEDIC_2x2_1_HA_1_N11593 VEDIC_4x4_1_VEDIC_2x2_1_HA_1_N09404 $D_HI
+  MbreakP           
M_VEDIC_4x4_1_VEDIC_2x2_1_HA_1_M17         $D_HI VEDIC_4x4_1_VEDIC_2x2_1_N00381
+  VEDIC_4x4_1_VEDIC_2x2_1_HA_1_N11628 $D_HI MbreakP           
M_VEDIC_4x4_1_VEDIC_2x2_1_HA_1_M9         N14028 VEDIC_4x4_1_VEDIC_2x2_1_N00370
+  VEDIC_4x4_1_VEDIC_2x2_1_HA_1_N09191 0 MbreakN           
M_VEDIC_4x4_1_VEDIC_2x2_1_HA_1_M15         $D_HI
+  VEDIC_4x4_1_VEDIC_2x2_1_HA_1_N11628 VEDIC_4x4_1_VEDIC_2x2_1_HA_1_N09404 $D_HI
+  MbreakP           
M_VEDIC_4x4_1_VEDIC_2x2_1_HA_1_M18         VEDIC_4x4_1_VEDIC_2x2_1_HA_1_N11593
+  VEDIC_4x4_1_VEDIC_2x2_1_N00370 0 0 MbreakN           
M_VEDIC_4x4_1_VEDIC_2x2_1_HA_1_M10         N14028
+  VEDIC_4x4_1_VEDIC_2x2_1_HA_1_N11593 VEDIC_4x4_1_VEDIC_2x2_1_HA_1_N09076 0
+  MbreakN           
M_VEDIC_4x4_1_VEDIC_2x2_1_HA_1_M19         VEDIC_4x4_1_VEDIC_2x2_1_HA_1_N11628
+  VEDIC_4x4_1_VEDIC_2x2_1_N00381 0 0 MbreakN           
M_VEDIC_4x4_1_VEDIC_2x2_1_AND_2_M5         $D_HI $D_HI
+  VEDIC_4x4_1_VEDIC_2x2_1_AND_2_N06579 $D_HI MbreakP           
M_VEDIC_4x4_1_VEDIC_2x2_1_AND_2_M2         VEDIC_4x4_1_VEDIC_2x2_1_AND_2_N06008
+  $D_HI 0 0 MbreakN           
M_VEDIC_4x4_1_VEDIC_2x2_1_AND_2_M4         $D_HI $D_HI
+  VEDIC_4x4_1_VEDIC_2x2_1_AND_2_N06579 $D_HI MbreakP           
M_VEDIC_4x4_1_VEDIC_2x2_1_AND_2_M1         VEDIC_4x4_1_VEDIC_2x2_1_AND_2_N06579
+  $D_HI VEDIC_4x4_1_VEDIC_2x2_1_AND_2_N06008 0 MbreakN           
M_VEDIC_4x4_1_VEDIC_2x2_1_AND_2_M6         $D_HI
+  VEDIC_4x4_1_VEDIC_2x2_1_AND_2_N06579 VEDIC_4x4_1_VEDIC_2x2_1_N00370 $D_HI
+  MbreakP           
M_VEDIC_4x4_1_VEDIC_2x2_1_AND_2_M3         VEDIC_4x4_1_VEDIC_2x2_1_N00370
+  VEDIC_4x4_1_VEDIC_2x2_1_AND_2_N06579 0 0 MbreakN           
M_VEDIC_4x4_1_VEDIC_2x2_1_AND_3_M5         $D_HI $D_HI
+  VEDIC_4x4_1_VEDIC_2x2_1_AND_3_N06579 $D_HI MbreakP           
M_VEDIC_4x4_1_VEDIC_2x2_1_AND_3_M2         VEDIC_4x4_1_VEDIC_2x2_1_AND_3_N06008
+  $D_HI 0 0 MbreakN           
M_VEDIC_4x4_1_VEDIC_2x2_1_AND_3_M4         $D_HI $D_HI
+  VEDIC_4x4_1_VEDIC_2x2_1_AND_3_N06579 $D_HI MbreakP           
M_VEDIC_4x4_1_VEDIC_2x2_1_AND_3_M1         VEDIC_4x4_1_VEDIC_2x2_1_AND_3_N06579
+  $D_HI VEDIC_4x4_1_VEDIC_2x2_1_AND_3_N06008 0 MbreakN           
M_VEDIC_4x4_1_VEDIC_2x2_1_AND_3_M6         $D_HI
+  VEDIC_4x4_1_VEDIC_2x2_1_AND_3_N06579 VEDIC_4x4_1_VEDIC_2x2_1_N00381 $D_HI
+  MbreakP           
M_VEDIC_4x4_1_VEDIC_2x2_1_AND_3_M3         VEDIC_4x4_1_VEDIC_2x2_1_N00381
+  VEDIC_4x4_1_VEDIC_2x2_1_AND_3_N06579 0 0 MbreakN           
M_VEDIC_4x4_1_VEDIC_2x2_1_HA_2_M11         VEDIC_4x4_1_VEDIC_2x2_1_HA_2_N09191
+  VEDIC_4x4_1_VEDIC_2x2_1_N00417 0 0 MbreakN           
M_VEDIC_4x4_1_VEDIC_2x2_1_HA_2_M5         $D_HI VEDIC_4x4_1_VEDIC_2x2_1_N00417
+  VEDIC_4x4_1_VEDIC_2x2_1_HA_2_N06579 $D_HI MbreakP           
M_VEDIC_4x4_1_VEDIC_2x2_1_HA_2_M2         VEDIC_4x4_1_VEDIC_2x2_1_HA_2_N06008
+  VEDIC_4x4_1_VEDIC_2x2_1_N00417 0 0 MbreakN           
M_VEDIC_4x4_1_VEDIC_2x2_1_HA_2_M4         $D_HI VEDIC_4x4_1_VEDIC_2x2_1_N00445
+  VEDIC_4x4_1_VEDIC_2x2_1_HA_2_N06579 $D_HI MbreakP           
M_VEDIC_4x4_1_VEDIC_2x2_1_HA_2_M12         VEDIC_4x4_1_VEDIC_2x2_1_HA_2_N09404
+  VEDIC_4x4_1_VEDIC_2x2_1_N00445 VEDIC_4x4_1_N00459 $D_HI MbreakP           
M_VEDIC_4x4_1_VEDIC_2x2_1_HA_2_M1         VEDIC_4x4_1_VEDIC_2x2_1_HA_2_N06579
+  VEDIC_4x4_1_VEDIC_2x2_1_N00445 VEDIC_4x4_1_VEDIC_2x2_1_HA_2_N06008 0 MbreakN  
+          
M_VEDIC_4x4_1_VEDIC_2x2_1_HA_2_M6         $D_HI
+  VEDIC_4x4_1_VEDIC_2x2_1_HA_2_N06579 VEDIC_4x4_1_N00477 $D_HI MbreakP          
+  
M_VEDIC_4x4_1_VEDIC_2x2_1_HA_2_M13         VEDIC_4x4_1_VEDIC_2x2_1_HA_2_N09404
+  VEDIC_4x4_1_VEDIC_2x2_1_N00417 VEDIC_4x4_1_N00459 $D_HI MbreakP           
M_VEDIC_4x4_1_VEDIC_2x2_1_HA_2_M3         VEDIC_4x4_1_N00477
+  VEDIC_4x4_1_VEDIC_2x2_1_HA_2_N06579 0 0 MbreakN           
M_VEDIC_4x4_1_VEDIC_2x2_1_HA_2_M16         $D_HI VEDIC_4x4_1_VEDIC_2x2_1_N00445
+  VEDIC_4x4_1_VEDIC_2x2_1_HA_2_N11593 $D_HI MbreakP           
M_VEDIC_4x4_1_VEDIC_2x2_1_HA_2_M8         VEDIC_4x4_1_VEDIC_2x2_1_HA_2_N09076
+  VEDIC_4x4_1_VEDIC_2x2_1_HA_2_N11628 0 0 MbreakN           
M_VEDIC_4x4_1_VEDIC_2x2_1_HA_2_M14         $D_HI
+  VEDIC_4x4_1_VEDIC_2x2_1_HA_2_N11593 VEDIC_4x4_1_VEDIC_2x2_1_HA_2_N09404 $D_HI
+  MbreakP           
M_VEDIC_4x4_1_VEDIC_2x2_1_HA_2_M17         $D_HI VEDIC_4x4_1_VEDIC_2x2_1_N00417
+  VEDIC_4x4_1_VEDIC_2x2_1_HA_2_N11628 $D_HI MbreakP           
M_VEDIC_4x4_1_VEDIC_2x2_1_HA_2_M9         VEDIC_4x4_1_N00459
+  VEDIC_4x4_1_VEDIC_2x2_1_N00445 VEDIC_4x4_1_VEDIC_2x2_1_HA_2_N09191 0 MbreakN  
+          
M_VEDIC_4x4_1_VEDIC_2x2_1_HA_2_M15         $D_HI
+  VEDIC_4x4_1_VEDIC_2x2_1_HA_2_N11628 VEDIC_4x4_1_VEDIC_2x2_1_HA_2_N09404 $D_HI
+  MbreakP           
M_VEDIC_4x4_1_VEDIC_2x2_1_HA_2_M18         VEDIC_4x4_1_VEDIC_2x2_1_HA_2_N11593
+  VEDIC_4x4_1_VEDIC_2x2_1_N00445 0 0 MbreakN           
M_VEDIC_4x4_1_VEDIC_2x2_1_HA_2_M10         VEDIC_4x4_1_N00459
+  VEDIC_4x4_1_VEDIC_2x2_1_HA_2_N11593 VEDIC_4x4_1_VEDIC_2x2_1_HA_2_N09076 0
+  MbreakN           
M_VEDIC_4x4_1_VEDIC_2x2_1_HA_2_M19         VEDIC_4x4_1_VEDIC_2x2_1_HA_2_N11628
+  VEDIC_4x4_1_VEDIC_2x2_1_N00417 0 0 MbreakN           
M_VEDIC_4x4_1_VEDIC_2x2_1_AND_4_M5         $D_HI $D_HI
+  VEDIC_4x4_1_VEDIC_2x2_1_AND_4_N06579 $D_HI MbreakP           
M_VEDIC_4x4_1_VEDIC_2x2_1_AND_4_M2         VEDIC_4x4_1_VEDIC_2x2_1_AND_4_N06008
+  $D_HI 0 0 MbreakN           
M_VEDIC_4x4_1_VEDIC_2x2_1_AND_4_M4         $D_HI $D_HI
+  VEDIC_4x4_1_VEDIC_2x2_1_AND_4_N06579 $D_HI MbreakP           
M_VEDIC_4x4_1_VEDIC_2x2_1_AND_4_M1         VEDIC_4x4_1_VEDIC_2x2_1_AND_4_N06579
+  $D_HI VEDIC_4x4_1_VEDIC_2x2_1_AND_4_N06008 0 MbreakN           
M_VEDIC_4x4_1_VEDIC_2x2_1_AND_4_M6         $D_HI
+  VEDIC_4x4_1_VEDIC_2x2_1_AND_4_N06579 VEDIC_4x4_1_VEDIC_2x2_1_N00417 $D_HI
+  MbreakP           
M_VEDIC_4x4_1_VEDIC_2x2_1_AND_4_M3         VEDIC_4x4_1_VEDIC_2x2_1_N00417
+  VEDIC_4x4_1_VEDIC_2x2_1_AND_4_N06579 0 0 MbreakN           
M_VEDIC_4x4_1_ADDER_6x6_1_4x4_1_HA_1_M11        
+  VEDIC_4x4_1_ADDER_6x6_1_4x4_1_HA_1_N09191 0 0 0 MbreakN           
M_VEDIC_4x4_1_ADDER_6x6_1_4x4_1_HA_1_M5         $D_HI 0
+  VEDIC_4x4_1_ADDER_6x6_1_4x4_1_HA_1_N06579 $D_HI MbreakP           
M_VEDIC_4x4_1_ADDER_6x6_1_4x4_1_HA_1_M2        
+  VEDIC_4x4_1_ADDER_6x6_1_4x4_1_HA_1_N06008 0 0 0 MbreakN           
M_VEDIC_4x4_1_ADDER_6x6_1_4x4_1_HA_1_M4         $D_HI VEDIC_4x4_1_N01971
+  VEDIC_4x4_1_ADDER_6x6_1_4x4_1_HA_1_N06579 $D_HI MbreakP           
M_VEDIC_4x4_1_ADDER_6x6_1_4x4_1_HA_1_M12        
+  VEDIC_4x4_1_ADDER_6x6_1_4x4_1_HA_1_N09404 VEDIC_4x4_1_N01971
+  VEDIC_4x4_1_N02988 $D_HI MbreakP           
M_VEDIC_4x4_1_ADDER_6x6_1_4x4_1_HA_1_M1        
+  VEDIC_4x4_1_ADDER_6x6_1_4x4_1_HA_1_N06579 VEDIC_4x4_1_N01971
+  VEDIC_4x4_1_ADDER_6x6_1_4x4_1_HA_1_N06008 0 MbreakN           
M_VEDIC_4x4_1_ADDER_6x6_1_4x4_1_HA_1_M6         $D_HI
+  VEDIC_4x4_1_ADDER_6x6_1_4x4_1_HA_1_N06579 VEDIC_4x4_1_ADDER_6x6_1_4x4_1_N00531
+  $D_HI MbreakP           
M_VEDIC_4x4_1_ADDER_6x6_1_4x4_1_HA_1_M13        
+  VEDIC_4x4_1_ADDER_6x6_1_4x4_1_HA_1_N09404 0 VEDIC_4x4_1_N02988 $D_HI MbreakP  
+          
M_VEDIC_4x4_1_ADDER_6x6_1_4x4_1_HA_1_M3        
+  VEDIC_4x4_1_ADDER_6x6_1_4x4_1_N00531 VEDIC_4x4_1_ADDER_6x6_1_4x4_1_HA_1_N06579
+  0 0 MbreakN           
M_VEDIC_4x4_1_ADDER_6x6_1_4x4_1_HA_1_M16         $D_HI VEDIC_4x4_1_N01971
+  VEDIC_4x4_1_ADDER_6x6_1_4x4_1_HA_1_N11593 $D_HI MbreakP           
M_VEDIC_4x4_1_ADDER_6x6_1_4x4_1_HA_1_M8        
+  VEDIC_4x4_1_ADDER_6x6_1_4x4_1_HA_1_N09076
+  VEDIC_4x4_1_ADDER_6x6_1_4x4_1_HA_1_N11628 0 0 MbreakN           
M_VEDIC_4x4_1_ADDER_6x6_1_4x4_1_HA_1_M14         $D_HI
+  VEDIC_4x4_1_ADDER_6x6_1_4x4_1_HA_1_N11593
+  VEDIC_4x4_1_ADDER_6x6_1_4x4_1_HA_1_N09404 $D_HI MbreakP           
M_VEDIC_4x4_1_ADDER_6x6_1_4x4_1_HA_1_M17         $D_HI 0
+  VEDIC_4x4_1_ADDER_6x6_1_4x4_1_HA_1_N11628 $D_HI MbreakP           
M_VEDIC_4x4_1_ADDER_6x6_1_4x4_1_HA_1_M9         VEDIC_4x4_1_N02988
+  VEDIC_4x4_1_N01971 VEDIC_4x4_1_ADDER_6x6_1_4x4_1_HA_1_N09191 0 MbreakN        
+    
M_VEDIC_4x4_1_ADDER_6x6_1_4x4_1_HA_1_M15         $D_HI
+  VEDIC_4x4_1_ADDER_6x6_1_4x4_1_HA_1_N11628
+  VEDIC_4x4_1_ADDER_6x6_1_4x4_1_HA_1_N09404 $D_HI MbreakP           
M_VEDIC_4x4_1_ADDER_6x6_1_4x4_1_HA_1_M18        
+  VEDIC_4x4_1_ADDER_6x6_1_4x4_1_HA_1_N11593 VEDIC_4x4_1_N01971 0 0 MbreakN      
+      
M_VEDIC_4x4_1_ADDER_6x6_1_4x4_1_HA_1_M10         VEDIC_4x4_1_N02988
+  VEDIC_4x4_1_ADDER_6x6_1_4x4_1_HA_1_N11593
+  VEDIC_4x4_1_ADDER_6x6_1_4x4_1_HA_1_N09076 0 MbreakN           
M_VEDIC_4x4_1_ADDER_6x6_1_4x4_1_HA_1_M19        
+  VEDIC_4x4_1_ADDER_6x6_1_4x4_1_HA_1_N11628 0 0 0 MbreakN           
M_VEDIC_4x4_1_ADDER_6x6_1_4x4_1_FA_1_M6        
+  VEDIC_4x4_1_ADDER_6x6_1_4x4_1_N00549 VEDIC_4x4_1_ADDER_6x6_1_4x4_1_FA_1_N00946
+  0 0 MbreakN           
M_VEDIC_4x4_1_ADDER_6x6_1_4x4_1_FA_1_HA1_M11        
+  VEDIC_4x4_1_ADDER_6x6_1_4x4_1_FA_1_HA1_N09191 0 0 0 MbreakN           
M_VEDIC_4x4_1_ADDER_6x6_1_4x4_1_FA_1_HA1_M5         $D_HI 0
+  VEDIC_4x4_1_ADDER_6x6_1_4x4_1_FA_1_HA1_N06579 $D_HI MbreakP           
M_VEDIC_4x4_1_ADDER_6x6_1_4x4_1_FA_1_HA1_M2        
+  VEDIC_4x4_1_ADDER_6x6_1_4x4_1_FA_1_HA1_N06008 0 0 0 MbreakN           
M_VEDIC_4x4_1_ADDER_6x6_1_4x4_1_FA_1_HA1_M4         $D_HI $D_HI
+  VEDIC_4x4_1_ADDER_6x6_1_4x4_1_FA_1_HA1_N06579 $D_HI MbreakP           
M_VEDIC_4x4_1_ADDER_6x6_1_4x4_1_FA_1_HA1_M12        
+  VEDIC_4x4_1_ADDER_6x6_1_4x4_1_FA_1_HA1_N09404 $D_HI
+  VEDIC_4x4_1_ADDER_6x6_1_4x4_1_FA_1_N00311 $D_HI MbreakP           
M_VEDIC_4x4_1_ADDER_6x6_1_4x4_1_FA_1_HA1_M1        
+  VEDIC_4x4_1_ADDER_6x6_1_4x4_1_FA_1_HA1_N06579 $D_HI
+  VEDIC_4x4_1_ADDER_6x6_1_4x4_1_FA_1_HA1_N06008 0 MbreakN           
M_VEDIC_4x4_1_ADDER_6x6_1_4x4_1_FA_1_HA1_M6         $D_HI
+  VEDIC_4x4_1_ADDER_6x6_1_4x4_1_FA_1_HA1_N06579
+  VEDIC_4x4_1_ADDER_6x6_1_4x4_1_FA_1_N01184 $D_HI MbreakP           
M_VEDIC_4x4_1_ADDER_6x6_1_4x4_1_FA_1_HA1_M13        
+  VEDIC_4x4_1_ADDER_6x6_1_4x4_1_FA_1_HA1_N09404 0
+  VEDIC_4x4_1_ADDER_6x6_1_4x4_1_FA_1_N00311 $D_HI MbreakP           
M_VEDIC_4x4_1_ADDER_6x6_1_4x4_1_FA_1_HA1_M3        
+  VEDIC_4x4_1_ADDER_6x6_1_4x4_1_FA_1_N01184
+  VEDIC_4x4_1_ADDER_6x6_1_4x4_1_FA_1_HA1_N06579 0 0 MbreakN           
M_VEDIC_4x4_1_ADDER_6x6_1_4x4_1_FA_1_HA1_M16         $D_HI $D_HI
+  VEDIC_4x4_1_ADDER_6x6_1_4x4_1_FA_1_HA1_N11593 $D_HI MbreakP           
M_VEDIC_4x4_1_ADDER_6x6_1_4x4_1_FA_1_HA1_M8        
+  VEDIC_4x4_1_ADDER_6x6_1_4x4_1_FA_1_HA1_N09076
+  VEDIC_4x4_1_ADDER_6x6_1_4x4_1_FA_1_HA1_N11628 0 0 MbreakN           
M_VEDIC_4x4_1_ADDER_6x6_1_4x4_1_FA_1_HA1_M14         $D_HI
+  VEDIC_4x4_1_ADDER_6x6_1_4x4_1_FA_1_HA1_N11593
+  VEDIC_4x4_1_ADDER_6x6_1_4x4_1_FA_1_HA1_N09404 $D_HI MbreakP           
M_VEDIC_4x4_1_ADDER_6x6_1_4x4_1_FA_1_HA1_M17         $D_HI 0
+  VEDIC_4x4_1_ADDER_6x6_1_4x4_1_FA_1_HA1_N11628 $D_HI MbreakP           
M_VEDIC_4x4_1_ADDER_6x6_1_4x4_1_FA_1_HA1_M9        
+  VEDIC_4x4_1_ADDER_6x6_1_4x4_1_FA_1_N00311 $D_HI
+  VEDIC_4x4_1_ADDER_6x6_1_4x4_1_FA_1_HA1_N09191 0 MbreakN           
M_VEDIC_4x4_1_ADDER_6x6_1_4x4_1_FA_1_HA1_M15         $D_HI
+  VEDIC_4x4_1_ADDER_6x6_1_4x4_1_FA_1_HA1_N11628
+  VEDIC_4x4_1_ADDER_6x6_1_4x4_1_FA_1_HA1_N09404 $D_HI MbreakP           
M_VEDIC_4x4_1_ADDER_6x6_1_4x4_1_FA_1_HA1_M18        
+  VEDIC_4x4_1_ADDER_6x6_1_4x4_1_FA_1_HA1_N11593 $D_HI 0 0 MbreakN           
M_VEDIC_4x4_1_ADDER_6x6_1_4x4_1_FA_1_HA1_M10        
+  VEDIC_4x4_1_ADDER_6x6_1_4x4_1_FA_1_N00311
+  VEDIC_4x4_1_ADDER_6x6_1_4x4_1_FA_1_HA1_N11593
+  VEDIC_4x4_1_ADDER_6x6_1_4x4_1_FA_1_HA1_N09076 0 MbreakN           
M_VEDIC_4x4_1_ADDER_6x6_1_4x4_1_FA_1_HA1_M19        
+  VEDIC_4x4_1_ADDER_6x6_1_4x4_1_FA_1_HA1_N11628 0 0 0 MbreakN           
M_VEDIC_4x4_1_ADDER_6x6_1_4x4_1_FA_1_M1        
+  VEDIC_4x4_1_ADDER_6x6_1_4x4_1_FA_1_N00946
+  VEDIC_4x4_1_ADDER_6x6_1_4x4_1_FA_1_N01184 0 0 MbreakN           
M_VEDIC_4x4_1_ADDER_6x6_1_4x4_1_FA_1_HA2_M11        
+  VEDIC_4x4_1_ADDER_6x6_1_4x4_1_FA_1_HA2_N09191
+  VEDIC_4x4_1_ADDER_6x6_1_4x4_1_FA_1_N00311 0 0 MbreakN           
M_VEDIC_4x4_1_ADDER_6x6_1_4x4_1_FA_1_HA2_M5         $D_HI
+  VEDIC_4x4_1_ADDER_6x6_1_4x4_1_FA_1_N00311
+  VEDIC_4x4_1_ADDER_6x6_1_4x4_1_FA_1_HA2_N06579 $D_HI MbreakP           
M_VEDIC_4x4_1_ADDER_6x6_1_4x4_1_FA_1_HA2_M2        
+  VEDIC_4x4_1_ADDER_6x6_1_4x4_1_FA_1_HA2_N06008
+  VEDIC_4x4_1_ADDER_6x6_1_4x4_1_FA_1_N00311 0 0 MbreakN           
M_VEDIC_4x4_1_ADDER_6x6_1_4x4_1_FA_1_HA2_M4         $D_HI
+  VEDIC_4x4_1_ADDER_6x6_1_4x4_1_N00531
+  VEDIC_4x4_1_ADDER_6x6_1_4x4_1_FA_1_HA2_N06579 $D_HI MbreakP           
M_VEDIC_4x4_1_ADDER_6x6_1_4x4_1_FA_1_HA2_M12        
+  VEDIC_4x4_1_ADDER_6x6_1_4x4_1_FA_1_HA2_N09404
+  VEDIC_4x4_1_ADDER_6x6_1_4x4_1_N00531 VEDIC_4x4_1_N02999 $D_HI MbreakP         
+   
M_VEDIC_4x4_1_ADDER_6x6_1_4x4_1_FA_1_HA2_M1        
+  VEDIC_4x4_1_ADDER_6x6_1_4x4_1_FA_1_HA2_N06579
+  VEDIC_4x4_1_ADDER_6x6_1_4x4_1_N00531
+  VEDIC_4x4_1_ADDER_6x6_1_4x4_1_FA_1_HA2_N06008 0 MbreakN           
M_VEDIC_4x4_1_ADDER_6x6_1_4x4_1_FA_1_HA2_M6         $D_HI
+  VEDIC_4x4_1_ADDER_6x6_1_4x4_1_FA_1_HA2_N06579
+  VEDIC_4x4_1_ADDER_6x6_1_4x4_1_FA_1_N01242 $D_HI MbreakP           
M_VEDIC_4x4_1_ADDER_6x6_1_4x4_1_FA_1_HA2_M13        
+  VEDIC_4x4_1_ADDER_6x6_1_4x4_1_FA_1_HA2_N09404
+  VEDIC_4x4_1_ADDER_6x6_1_4x4_1_FA_1_N00311 VEDIC_4x4_1_N02999 $D_HI MbreakP    
+        
M_VEDIC_4x4_1_ADDER_6x6_1_4x4_1_FA_1_HA2_M3        
+  VEDIC_4x4_1_ADDER_6x6_1_4x4_1_FA_1_N01242
+  VEDIC_4x4_1_ADDER_6x6_1_4x4_1_FA_1_HA2_N06579 0 0 MbreakN           
M_VEDIC_4x4_1_ADDER_6x6_1_4x4_1_FA_1_HA2_M16         $D_HI
+  VEDIC_4x4_1_ADDER_6x6_1_4x4_1_N00531
+  VEDIC_4x4_1_ADDER_6x6_1_4x4_1_FA_1_HA2_N11593 $D_HI MbreakP           
M_VEDIC_4x4_1_ADDER_6x6_1_4x4_1_FA_1_HA2_M8        
+  VEDIC_4x4_1_ADDER_6x6_1_4x4_1_FA_1_HA2_N09076
+  VEDIC_4x4_1_ADDER_6x6_1_4x4_1_FA_1_HA2_N11628 0 0 MbreakN           
M_VEDIC_4x4_1_ADDER_6x6_1_4x4_1_FA_1_HA2_M14         $D_HI
+  VEDIC_4x4_1_ADDER_6x6_1_4x4_1_FA_1_HA2_N11593
+  VEDIC_4x4_1_ADDER_6x6_1_4x4_1_FA_1_HA2_N09404 $D_HI MbreakP           
M_VEDIC_4x4_1_ADDER_6x6_1_4x4_1_FA_1_HA2_M17         $D_HI
+  VEDIC_4x4_1_ADDER_6x6_1_4x4_1_FA_1_N00311
+  VEDIC_4x4_1_ADDER_6x6_1_4x4_1_FA_1_HA2_N11628 $D_HI MbreakP           
M_VEDIC_4x4_1_ADDER_6x6_1_4x4_1_FA_1_HA2_M9         VEDIC_4x4_1_N02999
+  VEDIC_4x4_1_ADDER_6x6_1_4x4_1_N00531
+  VEDIC_4x4_1_ADDER_6x6_1_4x4_1_FA_1_HA2_N09191 0 MbreakN           
M_VEDIC_4x4_1_ADDER_6x6_1_4x4_1_FA_1_HA2_M15         $D_HI
+  VEDIC_4x4_1_ADDER_6x6_1_4x4_1_FA_1_HA2_N11628
+  VEDIC_4x4_1_ADDER_6x6_1_4x4_1_FA_1_HA2_N09404 $D_HI MbreakP           
M_VEDIC_4x4_1_ADDER_6x6_1_4x4_1_FA_1_HA2_M18        
+  VEDIC_4x4_1_ADDER_6x6_1_4x4_1_FA_1_HA2_N11593
+  VEDIC_4x4_1_ADDER_6x6_1_4x4_1_N00531 0 0 MbreakN           
M_VEDIC_4x4_1_ADDER_6x6_1_4x4_1_FA_1_HA2_M10         VEDIC_4x4_1_N02999
+  VEDIC_4x4_1_ADDER_6x6_1_4x4_1_FA_1_HA2_N11593
+  VEDIC_4x4_1_ADDER_6x6_1_4x4_1_FA_1_HA2_N09076 0 MbreakN           
M_VEDIC_4x4_1_ADDER_6x6_1_4x4_1_FA_1_HA2_M19        
+  VEDIC_4x4_1_ADDER_6x6_1_4x4_1_FA_1_HA2_N11628
+  VEDIC_4x4_1_ADDER_6x6_1_4x4_1_FA_1_N00311 0 0 MbreakN           
M_VEDIC_4x4_1_ADDER_6x6_1_4x4_1_FA_1_M3        
+  VEDIC_4x4_1_ADDER_6x6_1_4x4_1_FA_1_N01015
+  VEDIC_4x4_1_ADDER_6x6_1_4x4_1_FA_1_N01242
+  VEDIC_4x4_1_ADDER_6x6_1_4x4_1_FA_1_N00946 $D_HI MbreakP           
M_VEDIC_4x4_1_ADDER_6x6_1_4x4_1_FA_1_M2        
+  VEDIC_4x4_1_ADDER_6x6_1_4x4_1_FA_1_N00946
+  VEDIC_4x4_1_ADDER_6x6_1_4x4_1_FA_1_N01242 0 0 MbreakN           
M_VEDIC_4x4_1_ADDER_6x6_1_4x4_1_FA_1_M4         $D_HI
+  VEDIC_4x4_1_ADDER_6x6_1_4x4_1_FA_1_N01184
+  VEDIC_4x4_1_ADDER_6x6_1_4x4_1_FA_1_N01015 $D_HI MbreakP           
M_VEDIC_4x4_1_ADDER_6x6_1_4x4_1_FA_1_M5         $D_HI
+  VEDIC_4x4_1_ADDER_6x6_1_4x4_1_FA_1_N00946 VEDIC_4x4_1_ADDER_6x6_1_4x4_1_N00549
+  $D_HI MbreakP           
M_VEDIC_4x4_1_ADDER_6x6_1_4x4_1_FA_2_M6        
+  VEDIC_4x4_1_ADDER_6x6_1_4x4_1_N00567 VEDIC_4x4_1_ADDER_6x6_1_4x4_1_FA_2_N00946
+  0 0 MbreakN           
M_VEDIC_4x4_1_ADDER_6x6_1_4x4_1_FA_2_HA1_M11        
+  VEDIC_4x4_1_ADDER_6x6_1_4x4_1_FA_2_HA1_N09191 VEDIC_4x4_1_N02552 0 0 MbreakN  
+          
M_VEDIC_4x4_1_ADDER_6x6_1_4x4_1_FA_2_HA1_M5         $D_HI VEDIC_4x4_1_N02552
+  VEDIC_4x4_1_ADDER_6x6_1_4x4_1_FA_2_HA1_N06579 $D_HI MbreakP           
M_VEDIC_4x4_1_ADDER_6x6_1_4x4_1_FA_2_HA1_M2        
+  VEDIC_4x4_1_ADDER_6x6_1_4x4_1_FA_2_HA1_N06008 VEDIC_4x4_1_N02552 0 0 MbreakN  
+          
M_VEDIC_4x4_1_ADDER_6x6_1_4x4_1_FA_2_HA1_M4         $D_HI VEDIC_4x4_1_N02007
+  VEDIC_4x4_1_ADDER_6x6_1_4x4_1_FA_2_HA1_N06579 $D_HI MbreakP           
M_VEDIC_4x4_1_ADDER_6x6_1_4x4_1_FA_2_HA1_M12        
+  VEDIC_4x4_1_ADDER_6x6_1_4x4_1_FA_2_HA1_N09404 VEDIC_4x4_1_N02007
+  VEDIC_4x4_1_ADDER_6x6_1_4x4_1_FA_2_N00311 $D_HI MbreakP           
M_VEDIC_4x4_1_ADDER_6x6_1_4x4_1_FA_2_HA1_M1        
+  VEDIC_4x4_1_ADDER_6x6_1_4x4_1_FA_2_HA1_N06579 VEDIC_4x4_1_N02007
+  VEDIC_4x4_1_ADDER_6x6_1_4x4_1_FA_2_HA1_N06008 0 MbreakN           
M_VEDIC_4x4_1_ADDER_6x6_1_4x4_1_FA_2_HA1_M6         $D_HI
+  VEDIC_4x4_1_ADDER_6x6_1_4x4_1_FA_2_HA1_N06579
+  VEDIC_4x4_1_ADDER_6x6_1_4x4_1_FA_2_N01184 $D_HI MbreakP           
M_VEDIC_4x4_1_ADDER_6x6_1_4x4_1_FA_2_HA1_M13        
+  VEDIC_4x4_1_ADDER_6x6_1_4x4_1_FA_2_HA1_N09404 VEDIC_4x4_1_N02552
+  VEDIC_4x4_1_ADDER_6x6_1_4x4_1_FA_2_N00311 $D_HI MbreakP           
M_VEDIC_4x4_1_ADDER_6x6_1_4x4_1_FA_2_HA1_M3        
+  VEDIC_4x4_1_ADDER_6x6_1_4x4_1_FA_2_N01184
+  VEDIC_4x4_1_ADDER_6x6_1_4x4_1_FA_2_HA1_N06579 0 0 MbreakN           
M_VEDIC_4x4_1_ADDER_6x6_1_4x4_1_FA_2_HA1_M16         $D_HI VEDIC_4x4_1_N02007
+  VEDIC_4x4_1_ADDER_6x6_1_4x4_1_FA_2_HA1_N11593 $D_HI MbreakP           
M_VEDIC_4x4_1_ADDER_6x6_1_4x4_1_FA_2_HA1_M8        
+  VEDIC_4x4_1_ADDER_6x6_1_4x4_1_FA_2_HA1_N09076
+  VEDIC_4x4_1_ADDER_6x6_1_4x4_1_FA_2_HA1_N11628 0 0 MbreakN           
M_VEDIC_4x4_1_ADDER_6x6_1_4x4_1_FA_2_HA1_M14         $D_HI
+  VEDIC_4x4_1_ADDER_6x6_1_4x4_1_FA_2_HA1_N11593
+  VEDIC_4x4_1_ADDER_6x6_1_4x4_1_FA_2_HA1_N09404 $D_HI MbreakP           
M_VEDIC_4x4_1_ADDER_6x6_1_4x4_1_FA_2_HA1_M17         $D_HI VEDIC_4x4_1_N02552
+  VEDIC_4x4_1_ADDER_6x6_1_4x4_1_FA_2_HA1_N11628 $D_HI MbreakP           
M_VEDIC_4x4_1_ADDER_6x6_1_4x4_1_FA_2_HA1_M9        
+  VEDIC_4x4_1_ADDER_6x6_1_4x4_1_FA_2_N00311 VEDIC_4x4_1_N02007
+  VEDIC_4x4_1_ADDER_6x6_1_4x4_1_FA_2_HA1_N09191 0 MbreakN           
M_VEDIC_4x4_1_ADDER_6x6_1_4x4_1_FA_2_HA1_M15         $D_HI
+  VEDIC_4x4_1_ADDER_6x6_1_4x4_1_FA_2_HA1_N11628
+  VEDIC_4x4_1_ADDER_6x6_1_4x4_1_FA_2_HA1_N09404 $D_HI MbreakP           
M_VEDIC_4x4_1_ADDER_6x6_1_4x4_1_FA_2_HA1_M18        
+  VEDIC_4x4_1_ADDER_6x6_1_4x4_1_FA_2_HA1_N11593 VEDIC_4x4_1_N02007 0 0 MbreakN  
+          
M_VEDIC_4x4_1_ADDER_6x6_1_4x4_1_FA_2_HA1_M10        
+  VEDIC_4x4_1_ADDER_6x6_1_4x4_1_FA_2_N00311
+  VEDIC_4x4_1_ADDER_6x6_1_4x4_1_FA_2_HA1_N11593
+  VEDIC_4x4_1_ADDER_6x6_1_4x4_1_FA_2_HA1_N09076 0 MbreakN           
M_VEDIC_4x4_1_ADDER_6x6_1_4x4_1_FA_2_HA1_M19        
+  VEDIC_4x4_1_ADDER_6x6_1_4x4_1_FA_2_HA1_N11628 VEDIC_4x4_1_N02552 0 0 MbreakN  
+          
M_VEDIC_4x4_1_ADDER_6x6_1_4x4_1_FA_2_M1        
+  VEDIC_4x4_1_ADDER_6x6_1_4x4_1_FA_2_N00946
+  VEDIC_4x4_1_ADDER_6x6_1_4x4_1_FA_2_N01184 0 0 MbreakN           
M_VEDIC_4x4_1_ADDER_6x6_1_4x4_1_FA_2_HA2_M11        
+  VEDIC_4x4_1_ADDER_6x6_1_4x4_1_FA_2_HA2_N09191
+  VEDIC_4x4_1_ADDER_6x6_1_4x4_1_FA_2_N00311 0 0 MbreakN           
M_VEDIC_4x4_1_ADDER_6x6_1_4x4_1_FA_2_HA2_M5         $D_HI
+  VEDIC_4x4_1_ADDER_6x6_1_4x4_1_FA_2_N00311
+  VEDIC_4x4_1_ADDER_6x6_1_4x4_1_FA_2_HA2_N06579 $D_HI MbreakP           
M_VEDIC_4x4_1_ADDER_6x6_1_4x4_1_FA_2_HA2_M2        
+  VEDIC_4x4_1_ADDER_6x6_1_4x4_1_FA_2_HA2_N06008
+  VEDIC_4x4_1_ADDER_6x6_1_4x4_1_FA_2_N00311 0 0 MbreakN           
M_VEDIC_4x4_1_ADDER_6x6_1_4x4_1_FA_2_HA2_M4         $D_HI
+  VEDIC_4x4_1_ADDER_6x6_1_4x4_1_N00549
+  VEDIC_4x4_1_ADDER_6x6_1_4x4_1_FA_2_HA2_N06579 $D_HI MbreakP           
M_VEDIC_4x4_1_ADDER_6x6_1_4x4_1_FA_2_HA2_M12        
+  VEDIC_4x4_1_ADDER_6x6_1_4x4_1_FA_2_HA2_N09404
+  VEDIC_4x4_1_ADDER_6x6_1_4x4_1_N00549 VEDIC_4x4_1_N03010 $D_HI MbreakP         
+   
M_VEDIC_4x4_1_ADDER_6x6_1_4x4_1_FA_2_HA2_M1        
+  VEDIC_4x4_1_ADDER_6x6_1_4x4_1_FA_2_HA2_N06579
+  VEDIC_4x4_1_ADDER_6x6_1_4x4_1_N00549
+  VEDIC_4x4_1_ADDER_6x6_1_4x4_1_FA_2_HA2_N06008 0 MbreakN           
M_VEDIC_4x4_1_ADDER_6x6_1_4x4_1_FA_2_HA2_M6         $D_HI
+  VEDIC_4x4_1_ADDER_6x6_1_4x4_1_FA_2_HA2_N06579
+  VEDIC_4x4_1_ADDER_6x6_1_4x4_1_FA_2_N01242 $D_HI MbreakP           
M_VEDIC_4x4_1_ADDER_6x6_1_4x4_1_FA_2_HA2_M13        
+  VEDIC_4x4_1_ADDER_6x6_1_4x4_1_FA_2_HA2_N09404
+  VEDIC_4x4_1_ADDER_6x6_1_4x4_1_FA_2_N00311 VEDIC_4x4_1_N03010 $D_HI MbreakP    
+        
M_VEDIC_4x4_1_ADDER_6x6_1_4x4_1_FA_2_HA2_M3        
+  VEDIC_4x4_1_ADDER_6x6_1_4x4_1_FA_2_N01242
+  VEDIC_4x4_1_ADDER_6x6_1_4x4_1_FA_2_HA2_N06579 0 0 MbreakN           
M_VEDIC_4x4_1_ADDER_6x6_1_4x4_1_FA_2_HA2_M16         $D_HI
+  VEDIC_4x4_1_ADDER_6x6_1_4x4_1_N00549
+  VEDIC_4x4_1_ADDER_6x6_1_4x4_1_FA_2_HA2_N11593 $D_HI MbreakP           
M_VEDIC_4x4_1_ADDER_6x6_1_4x4_1_FA_2_HA2_M8        
+  VEDIC_4x4_1_ADDER_6x6_1_4x4_1_FA_2_HA2_N09076
+  VEDIC_4x4_1_ADDER_6x6_1_4x4_1_FA_2_HA2_N11628 0 0 MbreakN           
M_VEDIC_4x4_1_ADDER_6x6_1_4x4_1_FA_2_HA2_M14         $D_HI
+  VEDIC_4x4_1_ADDER_6x6_1_4x4_1_FA_2_HA2_N11593
+  VEDIC_4x4_1_ADDER_6x6_1_4x4_1_FA_2_HA2_N09404 $D_HI MbreakP           
M_VEDIC_4x4_1_ADDER_6x6_1_4x4_1_FA_2_HA2_M17         $D_HI
+  VEDIC_4x4_1_ADDER_6x6_1_4x4_1_FA_2_N00311
+  VEDIC_4x4_1_ADDER_6x6_1_4x4_1_FA_2_HA2_N11628 $D_HI MbreakP           
M_VEDIC_4x4_1_ADDER_6x6_1_4x4_1_FA_2_HA2_M9         VEDIC_4x4_1_N03010
+  VEDIC_4x4_1_ADDER_6x6_1_4x4_1_N00549
+  VEDIC_4x4_1_ADDER_6x6_1_4x4_1_FA_2_HA2_N09191 0 MbreakN           
M_VEDIC_4x4_1_ADDER_6x6_1_4x4_1_FA_2_HA2_M15         $D_HI
+  VEDIC_4x4_1_ADDER_6x6_1_4x4_1_FA_2_HA2_N11628
+  VEDIC_4x4_1_ADDER_6x6_1_4x4_1_FA_2_HA2_N09404 $D_HI MbreakP           
M_VEDIC_4x4_1_ADDER_6x6_1_4x4_1_FA_2_HA2_M18        
+  VEDIC_4x4_1_ADDER_6x6_1_4x4_1_FA_2_HA2_N11593
+  VEDIC_4x4_1_ADDER_6x6_1_4x4_1_N00549 0 0 MbreakN           
M_VEDIC_4x4_1_ADDER_6x6_1_4x4_1_FA_2_HA2_M10         VEDIC_4x4_1_N03010
+  VEDIC_4x4_1_ADDER_6x6_1_4x4_1_FA_2_HA2_N11593
+  VEDIC_4x4_1_ADDER_6x6_1_4x4_1_FA_2_HA2_N09076 0 MbreakN           
M_VEDIC_4x4_1_ADDER_6x6_1_4x4_1_FA_2_HA2_M19        
+  VEDIC_4x4_1_ADDER_6x6_1_4x4_1_FA_2_HA2_N11628
+  VEDIC_4x4_1_ADDER_6x6_1_4x4_1_FA_2_N00311 0 0 MbreakN           
M_VEDIC_4x4_1_ADDER_6x6_1_4x4_1_FA_2_M3        
+  VEDIC_4x4_1_ADDER_6x6_1_4x4_1_FA_2_N01015
+  VEDIC_4x4_1_ADDER_6x6_1_4x4_1_FA_2_N01242
+  VEDIC_4x4_1_ADDER_6x6_1_4x4_1_FA_2_N00946 $D_HI MbreakP           
M_VEDIC_4x4_1_ADDER_6x6_1_4x4_1_FA_2_M2        
+  VEDIC_4x4_1_ADDER_6x6_1_4x4_1_FA_2_N00946
+  VEDIC_4x4_1_ADDER_6x6_1_4x4_1_FA_2_N01242 0 0 MbreakN           
M_VEDIC_4x4_1_ADDER_6x6_1_4x4_1_FA_2_M4         $D_HI
+  VEDIC_4x4_1_ADDER_6x6_1_4x4_1_FA_2_N01184
+  VEDIC_4x4_1_ADDER_6x6_1_4x4_1_FA_2_N01015 $D_HI MbreakP           
M_VEDIC_4x4_1_ADDER_6x6_1_4x4_1_FA_2_M5         $D_HI
+  VEDIC_4x4_1_ADDER_6x6_1_4x4_1_FA_2_N00946 VEDIC_4x4_1_ADDER_6x6_1_4x4_1_N00567
+  $D_HI MbreakP           
M_VEDIC_4x4_1_ADDER_6x6_1_4x4_1_FA_3_M6         VEDIC_4x4_1_ADDER_6x6_1_N00579
+  VEDIC_4x4_1_ADDER_6x6_1_4x4_1_FA_3_N00946 0 0 MbreakN           
M_VEDIC_4x4_1_ADDER_6x6_1_4x4_1_FA_3_HA1_M11        
+  VEDIC_4x4_1_ADDER_6x6_1_4x4_1_FA_3_HA1_N09191 VEDIC_4x4_1_N02374 0 0 MbreakN  
+          
M_VEDIC_4x4_1_ADDER_6x6_1_4x4_1_FA_3_HA1_M5         $D_HI VEDIC_4x4_1_N02374
+  VEDIC_4x4_1_ADDER_6x6_1_4x4_1_FA_3_HA1_N06579 $D_HI MbreakP           
M_VEDIC_4x4_1_ADDER_6x6_1_4x4_1_FA_3_HA1_M2        
+  VEDIC_4x4_1_ADDER_6x6_1_4x4_1_FA_3_HA1_N06008 VEDIC_4x4_1_N02374 0 0 MbreakN  
+          
M_VEDIC_4x4_1_ADDER_6x6_1_4x4_1_FA_3_HA1_M4         $D_HI VEDIC_4x4_1_N02025
+  VEDIC_4x4_1_ADDER_6x6_1_4x4_1_FA_3_HA1_N06579 $D_HI MbreakP           
M_VEDIC_4x4_1_ADDER_6x6_1_4x4_1_FA_3_HA1_M12        
+  VEDIC_4x4_1_ADDER_6x6_1_4x4_1_FA_3_HA1_N09404 VEDIC_4x4_1_N02025
+  VEDIC_4x4_1_ADDER_6x6_1_4x4_1_FA_3_N00311 $D_HI MbreakP           
M_VEDIC_4x4_1_ADDER_6x6_1_4x4_1_FA_3_HA1_M1        
+  VEDIC_4x4_1_ADDER_6x6_1_4x4_1_FA_3_HA1_N06579 VEDIC_4x4_1_N02025
+  VEDIC_4x4_1_ADDER_6x6_1_4x4_1_FA_3_HA1_N06008 0 MbreakN           
M_VEDIC_4x4_1_ADDER_6x6_1_4x4_1_FA_3_HA1_M6         $D_HI
+  VEDIC_4x4_1_ADDER_6x6_1_4x4_1_FA_3_HA1_N06579
+  VEDIC_4x4_1_ADDER_6x6_1_4x4_1_FA_3_N01184 $D_HI MbreakP           
M_VEDIC_4x4_1_ADDER_6x6_1_4x4_1_FA_3_HA1_M13        
+  VEDIC_4x4_1_ADDER_6x6_1_4x4_1_FA_3_HA1_N09404 VEDIC_4x4_1_N02374
+  VEDIC_4x4_1_ADDER_6x6_1_4x4_1_FA_3_N00311 $D_HI MbreakP           
M_VEDIC_4x4_1_ADDER_6x6_1_4x4_1_FA_3_HA1_M3        
+  VEDIC_4x4_1_ADDER_6x6_1_4x4_1_FA_3_N01184
+  VEDIC_4x4_1_ADDER_6x6_1_4x4_1_FA_3_HA1_N06579 0 0 MbreakN           
M_VEDIC_4x4_1_ADDER_6x6_1_4x4_1_FA_3_HA1_M16         $D_HI VEDIC_4x4_1_N02025
+  VEDIC_4x4_1_ADDER_6x6_1_4x4_1_FA_3_HA1_N11593 $D_HI MbreakP           
M_VEDIC_4x4_1_ADDER_6x6_1_4x4_1_FA_3_HA1_M8        
+  VEDIC_4x4_1_ADDER_6x6_1_4x4_1_FA_3_HA1_N09076
+  VEDIC_4x4_1_ADDER_6x6_1_4x4_1_FA_3_HA1_N11628 0 0 MbreakN           
M_VEDIC_4x4_1_ADDER_6x6_1_4x4_1_FA_3_HA1_M14         $D_HI
+  VEDIC_4x4_1_ADDER_6x6_1_4x4_1_FA_3_HA1_N11593
+  VEDIC_4x4_1_ADDER_6x6_1_4x4_1_FA_3_HA1_N09404 $D_HI MbreakP           
M_VEDIC_4x4_1_ADDER_6x6_1_4x4_1_FA_3_HA1_M17         $D_HI VEDIC_4x4_1_N02374
+  VEDIC_4x4_1_ADDER_6x6_1_4x4_1_FA_3_HA1_N11628 $D_HI MbreakP           
M_VEDIC_4x4_1_ADDER_6x6_1_4x4_1_FA_3_HA1_M9        
+  VEDIC_4x4_1_ADDER_6x6_1_4x4_1_FA_3_N00311 VEDIC_4x4_1_N02025
+  VEDIC_4x4_1_ADDER_6x6_1_4x4_1_FA_3_HA1_N09191 0 MbreakN           
M_VEDIC_4x4_1_ADDER_6x6_1_4x4_1_FA_3_HA1_M15         $D_HI
+  VEDIC_4x4_1_ADDER_6x6_1_4x4_1_FA_3_HA1_N11628
+  VEDIC_4x4_1_ADDER_6x6_1_4x4_1_FA_3_HA1_N09404 $D_HI MbreakP           
M_VEDIC_4x4_1_ADDER_6x6_1_4x4_1_FA_3_HA1_M18        
+  VEDIC_4x4_1_ADDER_6x6_1_4x4_1_FA_3_HA1_N11593 VEDIC_4x4_1_N02025 0 0 MbreakN  
+          
M_VEDIC_4x4_1_ADDER_6x6_1_4x4_1_FA_3_HA1_M10        
+  VEDIC_4x4_1_ADDER_6x6_1_4x4_1_FA_3_N00311
+  VEDIC_4x4_1_ADDER_6x6_1_4x4_1_FA_3_HA1_N11593
+  VEDIC_4x4_1_ADDER_6x6_1_4x4_1_FA_3_HA1_N09076 0 MbreakN           
M_VEDIC_4x4_1_ADDER_6x6_1_4x4_1_FA_3_HA1_M19        
+  VEDIC_4x4_1_ADDER_6x6_1_4x4_1_FA_3_HA1_N11628 VEDIC_4x4_1_N02374 0 0 MbreakN  
+          
M_VEDIC_4x4_1_ADDER_6x6_1_4x4_1_FA_3_M1        
+  VEDIC_4x4_1_ADDER_6x6_1_4x4_1_FA_3_N00946
+  VEDIC_4x4_1_ADDER_6x6_1_4x4_1_FA_3_N01184 0 0 MbreakN           
M_VEDIC_4x4_1_ADDER_6x6_1_4x4_1_FA_3_HA2_M11        
+  VEDIC_4x4_1_ADDER_6x6_1_4x4_1_FA_3_HA2_N09191
+  VEDIC_4x4_1_ADDER_6x6_1_4x4_1_FA_3_N00311 0 0 MbreakN           
M_VEDIC_4x4_1_ADDER_6x6_1_4x4_1_FA_3_HA2_M5         $D_HI
+  VEDIC_4x4_1_ADDER_6x6_1_4x4_1_FA_3_N00311
+  VEDIC_4x4_1_ADDER_6x6_1_4x4_1_FA_3_HA2_N06579 $D_HI MbreakP           
M_VEDIC_4x4_1_ADDER_6x6_1_4x4_1_FA_3_HA2_M2        
+  VEDIC_4x4_1_ADDER_6x6_1_4x4_1_FA_3_HA2_N06008
+  VEDIC_4x4_1_ADDER_6x6_1_4x4_1_FA_3_N00311 0 0 MbreakN           
M_VEDIC_4x4_1_ADDER_6x6_1_4x4_1_FA_3_HA2_M4         $D_HI
+  VEDIC_4x4_1_ADDER_6x6_1_4x4_1_N00567
+  VEDIC_4x4_1_ADDER_6x6_1_4x4_1_FA_3_HA2_N06579 $D_HI MbreakP           
M_VEDIC_4x4_1_ADDER_6x6_1_4x4_1_FA_3_HA2_M12        
+  VEDIC_4x4_1_ADDER_6x6_1_4x4_1_FA_3_HA2_N09404
+  VEDIC_4x4_1_ADDER_6x6_1_4x4_1_N00567 VEDIC_4x4_1_N03021 $D_HI MbreakP         
+   
M_VEDIC_4x4_1_ADDER_6x6_1_4x4_1_FA_3_HA2_M1        
+  VEDIC_4x4_1_ADDER_6x6_1_4x4_1_FA_3_HA2_N06579
+  VEDIC_4x4_1_ADDER_6x6_1_4x4_1_N00567
+  VEDIC_4x4_1_ADDER_6x6_1_4x4_1_FA_3_HA2_N06008 0 MbreakN           
M_VEDIC_4x4_1_ADDER_6x6_1_4x4_1_FA_3_HA2_M6         $D_HI
+  VEDIC_4x4_1_ADDER_6x6_1_4x4_1_FA_3_HA2_N06579
+  VEDIC_4x4_1_ADDER_6x6_1_4x4_1_FA_3_N01242 $D_HI MbreakP           
M_VEDIC_4x4_1_ADDER_6x6_1_4x4_1_FA_3_HA2_M13        
+  VEDIC_4x4_1_ADDER_6x6_1_4x4_1_FA_3_HA2_N09404
+  VEDIC_4x4_1_ADDER_6x6_1_4x4_1_FA_3_N00311 VEDIC_4x4_1_N03021 $D_HI MbreakP    
+        
M_VEDIC_4x4_1_ADDER_6x6_1_4x4_1_FA_3_HA2_M3        
+  VEDIC_4x4_1_ADDER_6x6_1_4x4_1_FA_3_N01242
+  VEDIC_4x4_1_ADDER_6x6_1_4x4_1_FA_3_HA2_N06579 0 0 MbreakN           
M_VEDIC_4x4_1_ADDER_6x6_1_4x4_1_FA_3_HA2_M16         $D_HI
+  VEDIC_4x4_1_ADDER_6x6_1_4x4_1_N00567
+  VEDIC_4x4_1_ADDER_6x6_1_4x4_1_FA_3_HA2_N11593 $D_HI MbreakP           
M_VEDIC_4x4_1_ADDER_6x6_1_4x4_1_FA_3_HA2_M8        
+  VEDIC_4x4_1_ADDER_6x6_1_4x4_1_FA_3_HA2_N09076
+  VEDIC_4x4_1_ADDER_6x6_1_4x4_1_FA_3_HA2_N11628 0 0 MbreakN           
M_VEDIC_4x4_1_ADDER_6x6_1_4x4_1_FA_3_HA2_M14         $D_HI
+  VEDIC_4x4_1_ADDER_6x6_1_4x4_1_FA_3_HA2_N11593
+  VEDIC_4x4_1_ADDER_6x6_1_4x4_1_FA_3_HA2_N09404 $D_HI MbreakP           
M_VEDIC_4x4_1_ADDER_6x6_1_4x4_1_FA_3_HA2_M17         $D_HI
+  VEDIC_4x4_1_ADDER_6x6_1_4x4_1_FA_3_N00311
+  VEDIC_4x4_1_ADDER_6x6_1_4x4_1_FA_3_HA2_N11628 $D_HI MbreakP           
M_VEDIC_4x4_1_ADDER_6x6_1_4x4_1_FA_3_HA2_M9         VEDIC_4x4_1_N03021
+  VEDIC_4x4_1_ADDER_6x6_1_4x4_1_N00567
+  VEDIC_4x4_1_ADDER_6x6_1_4x4_1_FA_3_HA2_N09191 0 MbreakN           
M_VEDIC_4x4_1_ADDER_6x6_1_4x4_1_FA_3_HA2_M15         $D_HI
+  VEDIC_4x4_1_ADDER_6x6_1_4x4_1_FA_3_HA2_N11628
+  VEDIC_4x4_1_ADDER_6x6_1_4x4_1_FA_3_HA2_N09404 $D_HI MbreakP           
M_VEDIC_4x4_1_ADDER_6x6_1_4x4_1_FA_3_HA2_M18        
+  VEDIC_4x4_1_ADDER_6x6_1_4x4_1_FA_3_HA2_N11593
+  VEDIC_4x4_1_ADDER_6x6_1_4x4_1_N00567 0 0 MbreakN           
M_VEDIC_4x4_1_ADDER_6x6_1_4x4_1_FA_3_HA2_M10         VEDIC_4x4_1_N03021
+  VEDIC_4x4_1_ADDER_6x6_1_4x4_1_FA_3_HA2_N11593
+  VEDIC_4x4_1_ADDER_6x6_1_4x4_1_FA_3_HA2_N09076 0 MbreakN           
M_VEDIC_4x4_1_ADDER_6x6_1_4x4_1_FA_3_HA2_M19        
+  VEDIC_4x4_1_ADDER_6x6_1_4x4_1_FA_3_HA2_N11628
+  VEDIC_4x4_1_ADDER_6x6_1_4x4_1_FA_3_N00311 0 0 MbreakN           
M_VEDIC_4x4_1_ADDER_6x6_1_4x4_1_FA_3_M3        
+  VEDIC_4x4_1_ADDER_6x6_1_4x4_1_FA_3_N01015
+  VEDIC_4x4_1_ADDER_6x6_1_4x4_1_FA_3_N01242
+  VEDIC_4x4_1_ADDER_6x6_1_4x4_1_FA_3_N00946 $D_HI MbreakP           
M_VEDIC_4x4_1_ADDER_6x6_1_4x4_1_FA_3_M2        
+  VEDIC_4x4_1_ADDER_6x6_1_4x4_1_FA_3_N00946
+  VEDIC_4x4_1_ADDER_6x6_1_4x4_1_FA_3_N01242 0 0 MbreakN           
M_VEDIC_4x4_1_ADDER_6x6_1_4x4_1_FA_3_M4         $D_HI
+  VEDIC_4x4_1_ADDER_6x6_1_4x4_1_FA_3_N01184
+  VEDIC_4x4_1_ADDER_6x6_1_4x4_1_FA_3_N01015 $D_HI MbreakP           
M_VEDIC_4x4_1_ADDER_6x6_1_4x4_1_FA_3_M5         $D_HI
+  VEDIC_4x4_1_ADDER_6x6_1_4x4_1_FA_3_N00946 VEDIC_4x4_1_ADDER_6x6_1_N00579 $D_HI
+  MbreakP           
M_VEDIC_4x4_1_ADDER_6x6_1_FA_1_M6         VEDIC_4x4_1_ADDER_6x6_1_N00597
+  VEDIC_4x4_1_ADDER_6x6_1_FA_1_N00946 0 0 MbreakN           
M_VEDIC_4x4_1_ADDER_6x6_1_FA_1_HA1_M11        
+  VEDIC_4x4_1_ADDER_6x6_1_FA_1_HA1_N09191 VEDIC_4x4_1_N02588 0 0 MbreakN        
+    
M_VEDIC_4x4_1_ADDER_6x6_1_FA_1_HA1_M5         $D_HI VEDIC_4x4_1_N02588
+  VEDIC_4x4_1_ADDER_6x6_1_FA_1_HA1_N06579 $D_HI MbreakP           
M_VEDIC_4x4_1_ADDER_6x6_1_FA_1_HA1_M2        
+  VEDIC_4x4_1_ADDER_6x6_1_FA_1_HA1_N06008 VEDIC_4x4_1_N02588 0 0 MbreakN        
+    
M_VEDIC_4x4_1_ADDER_6x6_1_FA_1_HA1_M4         $D_HI 0
+  VEDIC_4x4_1_ADDER_6x6_1_FA_1_HA1_N06579 $D_HI MbreakP           
M_VEDIC_4x4_1_ADDER_6x6_1_FA_1_HA1_M12        
+  VEDIC_4x4_1_ADDER_6x6_1_FA_1_HA1_N09404 0 VEDIC_4x4_1_ADDER_6x6_1_FA_1_N00311
+  $D_HI MbreakP           
M_VEDIC_4x4_1_ADDER_6x6_1_FA_1_HA1_M1        
+  VEDIC_4x4_1_ADDER_6x6_1_FA_1_HA1_N06579 0
+  VEDIC_4x4_1_ADDER_6x6_1_FA_1_HA1_N06008 0 MbreakN           
M_VEDIC_4x4_1_ADDER_6x6_1_FA_1_HA1_M6         $D_HI
+  VEDIC_4x4_1_ADDER_6x6_1_FA_1_HA1_N06579 VEDIC_4x4_1_ADDER_6x6_1_FA_1_N01184
+  $D_HI MbreakP           
M_VEDIC_4x4_1_ADDER_6x6_1_FA_1_HA1_M13        
+  VEDIC_4x4_1_ADDER_6x6_1_FA_1_HA1_N09404 VEDIC_4x4_1_N02588
+  VEDIC_4x4_1_ADDER_6x6_1_FA_1_N00311 $D_HI MbreakP           
M_VEDIC_4x4_1_ADDER_6x6_1_FA_1_HA1_M3        
+  VEDIC_4x4_1_ADDER_6x6_1_FA_1_N01184 VEDIC_4x4_1_ADDER_6x6_1_FA_1_HA1_N06579 0
+  0 MbreakN           
M_VEDIC_4x4_1_ADDER_6x6_1_FA_1_HA1_M16         $D_HI 0
+  VEDIC_4x4_1_ADDER_6x6_1_FA_1_HA1_N11593 $D_HI MbreakP           
M_VEDIC_4x4_1_ADDER_6x6_1_FA_1_HA1_M8        
+  VEDIC_4x4_1_ADDER_6x6_1_FA_1_HA1_N09076
+  VEDIC_4x4_1_ADDER_6x6_1_FA_1_HA1_N11628 0 0 MbreakN           
M_VEDIC_4x4_1_ADDER_6x6_1_FA_1_HA1_M14         $D_HI
+  VEDIC_4x4_1_ADDER_6x6_1_FA_1_HA1_N11593
+  VEDIC_4x4_1_ADDER_6x6_1_FA_1_HA1_N09404 $D_HI MbreakP           
M_VEDIC_4x4_1_ADDER_6x6_1_FA_1_HA1_M17         $D_HI VEDIC_4x4_1_N02588
+  VEDIC_4x4_1_ADDER_6x6_1_FA_1_HA1_N11628 $D_HI MbreakP           
M_VEDIC_4x4_1_ADDER_6x6_1_FA_1_HA1_M9        
+  VEDIC_4x4_1_ADDER_6x6_1_FA_1_N00311 0 VEDIC_4x4_1_ADDER_6x6_1_FA_1_HA1_N09191
+  0 MbreakN           
M_VEDIC_4x4_1_ADDER_6x6_1_FA_1_HA1_M15         $D_HI
+  VEDIC_4x4_1_ADDER_6x6_1_FA_1_HA1_N11628
+  VEDIC_4x4_1_ADDER_6x6_1_FA_1_HA1_N09404 $D_HI MbreakP           
M_VEDIC_4x4_1_ADDER_6x6_1_FA_1_HA1_M18        
+  VEDIC_4x4_1_ADDER_6x6_1_FA_1_HA1_N11593 0 0 0 MbreakN           
M_VEDIC_4x4_1_ADDER_6x6_1_FA_1_HA1_M10        
+  VEDIC_4x4_1_ADDER_6x6_1_FA_1_N00311 VEDIC_4x4_1_ADDER_6x6_1_FA_1_HA1_N11593
+  VEDIC_4x4_1_ADDER_6x6_1_FA_1_HA1_N09076 0 MbreakN           
M_VEDIC_4x4_1_ADDER_6x6_1_FA_1_HA1_M19        
+  VEDIC_4x4_1_ADDER_6x6_1_FA_1_HA1_N11628 VEDIC_4x4_1_N02588 0 0 MbreakN        
+    
M_VEDIC_4x4_1_ADDER_6x6_1_FA_1_M1         VEDIC_4x4_1_ADDER_6x6_1_FA_1_N00946
+  VEDIC_4x4_1_ADDER_6x6_1_FA_1_N01184 0 0 MbreakN           
M_VEDIC_4x4_1_ADDER_6x6_1_FA_1_HA2_M11        
+  VEDIC_4x4_1_ADDER_6x6_1_FA_1_HA2_N09191 VEDIC_4x4_1_ADDER_6x6_1_FA_1_N00311 0
+  0 MbreakN           
M_VEDIC_4x4_1_ADDER_6x6_1_FA_1_HA2_M5         $D_HI
+  VEDIC_4x4_1_ADDER_6x6_1_FA_1_N00311 VEDIC_4x4_1_ADDER_6x6_1_FA_1_HA2_N06579
+  $D_HI MbreakP           
M_VEDIC_4x4_1_ADDER_6x6_1_FA_1_HA2_M2        
+  VEDIC_4x4_1_ADDER_6x6_1_FA_1_HA2_N06008 VEDIC_4x4_1_ADDER_6x6_1_FA_1_N00311 0
+  0 MbreakN           
M_VEDIC_4x4_1_ADDER_6x6_1_FA_1_HA2_M4         $D_HI
+  VEDIC_4x4_1_ADDER_6x6_1_N00579 VEDIC_4x4_1_ADDER_6x6_1_FA_1_HA2_N06579 $D_HI
+  MbreakP           
M_VEDIC_4x4_1_ADDER_6x6_1_FA_1_HA2_M12        
+  VEDIC_4x4_1_ADDER_6x6_1_FA_1_HA2_N09404 VEDIC_4x4_1_ADDER_6x6_1_N00579
+  VEDIC_4x4_1_N03032 $D_HI MbreakP           
M_VEDIC_4x4_1_ADDER_6x6_1_FA_1_HA2_M1        
+  VEDIC_4x4_1_ADDER_6x6_1_FA_1_HA2_N06579 VEDIC_4x4_1_ADDER_6x6_1_N00579
+  VEDIC_4x4_1_ADDER_6x6_1_FA_1_HA2_N06008 0 MbreakN           
M_VEDIC_4x4_1_ADDER_6x6_1_FA_1_HA2_M6         $D_HI
+  VEDIC_4x4_1_ADDER_6x6_1_FA_1_HA2_N06579 VEDIC_4x4_1_ADDER_6x6_1_FA_1_N01242
+  $D_HI MbreakP           
M_VEDIC_4x4_1_ADDER_6x6_1_FA_1_HA2_M13        
+  VEDIC_4x4_1_ADDER_6x6_1_FA_1_HA2_N09404 VEDIC_4x4_1_ADDER_6x6_1_FA_1_N00311
+  VEDIC_4x4_1_N03032 $D_HI MbreakP           
M_VEDIC_4x4_1_ADDER_6x6_1_FA_1_HA2_M3        
+  VEDIC_4x4_1_ADDER_6x6_1_FA_1_N01242 VEDIC_4x4_1_ADDER_6x6_1_FA_1_HA2_N06579 0
+  0 MbreakN           
M_VEDIC_4x4_1_ADDER_6x6_1_FA_1_HA2_M16         $D_HI
+  VEDIC_4x4_1_ADDER_6x6_1_N00579 VEDIC_4x4_1_ADDER_6x6_1_FA_1_HA2_N11593 $D_HI
+  MbreakP           
M_VEDIC_4x4_1_ADDER_6x6_1_FA_1_HA2_M8        
+  VEDIC_4x4_1_ADDER_6x6_1_FA_1_HA2_N09076
+  VEDIC_4x4_1_ADDER_6x6_1_FA_1_HA2_N11628 0 0 MbreakN           
M_VEDIC_4x4_1_ADDER_6x6_1_FA_1_HA2_M14         $D_HI
+  VEDIC_4x4_1_ADDER_6x6_1_FA_1_HA2_N11593
+  VEDIC_4x4_1_ADDER_6x6_1_FA_1_HA2_N09404 $D_HI MbreakP           
M_VEDIC_4x4_1_ADDER_6x6_1_FA_1_HA2_M17         $D_HI
+  VEDIC_4x4_1_ADDER_6x6_1_FA_1_N00311 VEDIC_4x4_1_ADDER_6x6_1_FA_1_HA2_N11628
+  $D_HI MbreakP           
M_VEDIC_4x4_1_ADDER_6x6_1_FA_1_HA2_M9         VEDIC_4x4_1_N03032
+  VEDIC_4x4_1_ADDER_6x6_1_N00579 VEDIC_4x4_1_ADDER_6x6_1_FA_1_HA2_N09191 0
+  MbreakN           
M_VEDIC_4x4_1_ADDER_6x6_1_FA_1_HA2_M15         $D_HI
+  VEDIC_4x4_1_ADDER_6x6_1_FA_1_HA2_N11628
+  VEDIC_4x4_1_ADDER_6x6_1_FA_1_HA2_N09404 $D_HI MbreakP           
M_VEDIC_4x4_1_ADDER_6x6_1_FA_1_HA2_M18        
+  VEDIC_4x4_1_ADDER_6x6_1_FA_1_HA2_N11593 VEDIC_4x4_1_ADDER_6x6_1_N00579 0 0
+  MbreakN           
M_VEDIC_4x4_1_ADDER_6x6_1_FA_1_HA2_M10         VEDIC_4x4_1_N03032
+  VEDIC_4x4_1_ADDER_6x6_1_FA_1_HA2_N11593
+  VEDIC_4x4_1_ADDER_6x6_1_FA_1_HA2_N09076 0 MbreakN           
M_VEDIC_4x4_1_ADDER_6x6_1_FA_1_HA2_M19        
+  VEDIC_4x4_1_ADDER_6x6_1_FA_1_HA2_N11628 VEDIC_4x4_1_ADDER_6x6_1_FA_1_N00311 0
+  0 MbreakN           
M_VEDIC_4x4_1_ADDER_6x6_1_FA_1_M3         VEDIC_4x4_1_ADDER_6x6_1_FA_1_N01015
+  VEDIC_4x4_1_ADDER_6x6_1_FA_1_N01242 VEDIC_4x4_1_ADDER_6x6_1_FA_1_N00946 $D_HI
+  MbreakP           
M_VEDIC_4x4_1_ADDER_6x6_1_FA_1_M2         VEDIC_4x4_1_ADDER_6x6_1_FA_1_N00946
+  VEDIC_4x4_1_ADDER_6x6_1_FA_1_N01242 0 0 MbreakN           
M_VEDIC_4x4_1_ADDER_6x6_1_FA_1_M4         $D_HI
+  VEDIC_4x4_1_ADDER_6x6_1_FA_1_N01184 VEDIC_4x4_1_ADDER_6x6_1_FA_1_N01015 $D_HI
+  MbreakP           
M_VEDIC_4x4_1_ADDER_6x6_1_FA_1_M5         $D_HI
+  VEDIC_4x4_1_ADDER_6x6_1_FA_1_N00946 VEDIC_4x4_1_ADDER_6x6_1_N00597 $D_HI
+  MbreakP           
M_VEDIC_4x4_1_ADDER_6x6_1_FA_2_M6         VEDIC_4x4_1_ADDER_6x6_1_Q6
+  VEDIC_4x4_1_ADDER_6x6_1_FA_2_N00946 0 0 MbreakN           
M_VEDIC_4x4_1_ADDER_6x6_1_FA_2_HA1_M11        
+  VEDIC_4x4_1_ADDER_6x6_1_FA_2_HA1_N09191 VEDIC_4x4_1_N02608 0 0 MbreakN        
+    
M_VEDIC_4x4_1_ADDER_6x6_1_FA_2_HA1_M5         $D_HI VEDIC_4x4_1_N02608
+  VEDIC_4x4_1_ADDER_6x6_1_FA_2_HA1_N06579 $D_HI MbreakP           
M_VEDIC_4x4_1_ADDER_6x6_1_FA_2_HA1_M2        
+  VEDIC_4x4_1_ADDER_6x6_1_FA_2_HA1_N06008 VEDIC_4x4_1_N02608 0 0 MbreakN        
+    
M_VEDIC_4x4_1_ADDER_6x6_1_FA_2_HA1_M4         $D_HI 0
+  VEDIC_4x4_1_ADDER_6x6_1_FA_2_HA1_N06579 $D_HI MbreakP           
M_VEDIC_4x4_1_ADDER_6x6_1_FA_2_HA1_M12        
+  VEDIC_4x4_1_ADDER_6x6_1_FA_2_HA1_N09404 0 VEDIC_4x4_1_ADDER_6x6_1_FA_2_N00311
+  $D_HI MbreakP           
M_VEDIC_4x4_1_ADDER_6x6_1_FA_2_HA1_M1        
+  VEDIC_4x4_1_ADDER_6x6_1_FA_2_HA1_N06579 0
+  VEDIC_4x4_1_ADDER_6x6_1_FA_2_HA1_N06008 0 MbreakN           
M_VEDIC_4x4_1_ADDER_6x6_1_FA_2_HA1_M6         $D_HI
+  VEDIC_4x4_1_ADDER_6x6_1_FA_2_HA1_N06579 VEDIC_4x4_1_ADDER_6x6_1_FA_2_N01184
+  $D_HI MbreakP           
M_VEDIC_4x4_1_ADDER_6x6_1_FA_2_HA1_M13        
+  VEDIC_4x4_1_ADDER_6x6_1_FA_2_HA1_N09404 VEDIC_4x4_1_N02608
+  VEDIC_4x4_1_ADDER_6x6_1_FA_2_N00311 $D_HI MbreakP           
M_VEDIC_4x4_1_ADDER_6x6_1_FA_2_HA1_M3        
+  VEDIC_4x4_1_ADDER_6x6_1_FA_2_N01184 VEDIC_4x4_1_ADDER_6x6_1_FA_2_HA1_N06579 0
+  0 MbreakN           
M_VEDIC_4x4_1_ADDER_6x6_1_FA_2_HA1_M16         $D_HI 0
+  VEDIC_4x4_1_ADDER_6x6_1_FA_2_HA1_N11593 $D_HI MbreakP           
M_VEDIC_4x4_1_ADDER_6x6_1_FA_2_HA1_M8        
+  VEDIC_4x4_1_ADDER_6x6_1_FA_2_HA1_N09076
+  VEDIC_4x4_1_ADDER_6x6_1_FA_2_HA1_N11628 0 0 MbreakN           
M_VEDIC_4x4_1_ADDER_6x6_1_FA_2_HA1_M14         $D_HI
+  VEDIC_4x4_1_ADDER_6x6_1_FA_2_HA1_N11593
+  VEDIC_4x4_1_ADDER_6x6_1_FA_2_HA1_N09404 $D_HI MbreakP           
M_VEDIC_4x4_1_ADDER_6x6_1_FA_2_HA1_M17         $D_HI VEDIC_4x4_1_N02608
+  VEDIC_4x4_1_ADDER_6x6_1_FA_2_HA1_N11628 $D_HI MbreakP           
M_VEDIC_4x4_1_ADDER_6x6_1_FA_2_HA1_M9        
+  VEDIC_4x4_1_ADDER_6x6_1_FA_2_N00311 0 VEDIC_4x4_1_ADDER_6x6_1_FA_2_HA1_N09191
+  0 MbreakN           
M_VEDIC_4x4_1_ADDER_6x6_1_FA_2_HA1_M15         $D_HI
+  VEDIC_4x4_1_ADDER_6x6_1_FA_2_HA1_N11628
+  VEDIC_4x4_1_ADDER_6x6_1_FA_2_HA1_N09404 $D_HI MbreakP           
M_VEDIC_4x4_1_ADDER_6x6_1_FA_2_HA1_M18        
+  VEDIC_4x4_1_ADDER_6x6_1_FA_2_HA1_N11593 0 0 0 MbreakN           
M_VEDIC_4x4_1_ADDER_6x6_1_FA_2_HA1_M10        
+  VEDIC_4x4_1_ADDER_6x6_1_FA_2_N00311 VEDIC_4x4_1_ADDER_6x6_1_FA_2_HA1_N11593
+  VEDIC_4x4_1_ADDER_6x6_1_FA_2_HA1_N09076 0 MbreakN           
M_VEDIC_4x4_1_ADDER_6x6_1_FA_2_HA1_M19        
+  VEDIC_4x4_1_ADDER_6x6_1_FA_2_HA1_N11628 VEDIC_4x4_1_N02608 0 0 MbreakN        
+    
M_VEDIC_4x4_1_ADDER_6x6_1_FA_2_M1         VEDIC_4x4_1_ADDER_6x6_1_FA_2_N00946
+  VEDIC_4x4_1_ADDER_6x6_1_FA_2_N01184 0 0 MbreakN           
M_VEDIC_4x4_1_ADDER_6x6_1_FA_2_HA2_M11        
+  VEDIC_4x4_1_ADDER_6x6_1_FA_2_HA2_N09191 VEDIC_4x4_1_ADDER_6x6_1_FA_2_N00311 0
+  0 MbreakN           
M_VEDIC_4x4_1_ADDER_6x6_1_FA_2_HA2_M5         $D_HI
+  VEDIC_4x4_1_ADDER_6x6_1_FA_2_N00311 VEDIC_4x4_1_ADDER_6x6_1_FA_2_HA2_N06579
+  $D_HI MbreakP           
M_VEDIC_4x4_1_ADDER_6x6_1_FA_2_HA2_M2        
+  VEDIC_4x4_1_ADDER_6x6_1_FA_2_HA2_N06008 VEDIC_4x4_1_ADDER_6x6_1_FA_2_N00311 0
+  0 MbreakN           
M_VEDIC_4x4_1_ADDER_6x6_1_FA_2_HA2_M4         $D_HI
+  VEDIC_4x4_1_ADDER_6x6_1_N00597 VEDIC_4x4_1_ADDER_6x6_1_FA_2_HA2_N06579 $D_HI
+  MbreakP           
M_VEDIC_4x4_1_ADDER_6x6_1_FA_2_HA2_M12        
+  VEDIC_4x4_1_ADDER_6x6_1_FA_2_HA2_N09404 VEDIC_4x4_1_ADDER_6x6_1_N00597
+  VEDIC_4x4_1_N03043 $D_HI MbreakP           
M_VEDIC_4x4_1_ADDER_6x6_1_FA_2_HA2_M1        
+  VEDIC_4x4_1_ADDER_6x6_1_FA_2_HA2_N06579 VEDIC_4x4_1_ADDER_6x6_1_N00597
+  VEDIC_4x4_1_ADDER_6x6_1_FA_2_HA2_N06008 0 MbreakN           
M_VEDIC_4x4_1_ADDER_6x6_1_FA_2_HA2_M6         $D_HI
+  VEDIC_4x4_1_ADDER_6x6_1_FA_2_HA2_N06579 VEDIC_4x4_1_ADDER_6x6_1_FA_2_N01242
+  $D_HI MbreakP           
M_VEDIC_4x4_1_ADDER_6x6_1_FA_2_HA2_M13        
+  VEDIC_4x4_1_ADDER_6x6_1_FA_2_HA2_N09404 VEDIC_4x4_1_ADDER_6x6_1_FA_2_N00311
+  VEDIC_4x4_1_N03043 $D_HI MbreakP           
M_VEDIC_4x4_1_ADDER_6x6_1_FA_2_HA2_M3        
+  VEDIC_4x4_1_ADDER_6x6_1_FA_2_N01242 VEDIC_4x4_1_ADDER_6x6_1_FA_2_HA2_N06579 0
+  0 MbreakN           
M_VEDIC_4x4_1_ADDER_6x6_1_FA_2_HA2_M16         $D_HI
+  VEDIC_4x4_1_ADDER_6x6_1_N00597 VEDIC_4x4_1_ADDER_6x6_1_FA_2_HA2_N11593 $D_HI
+  MbreakP           
M_VEDIC_4x4_1_ADDER_6x6_1_FA_2_HA2_M8        
+  VEDIC_4x4_1_ADDER_6x6_1_FA_2_HA2_N09076
+  VEDIC_4x4_1_ADDER_6x6_1_FA_2_HA2_N11628 0 0 MbreakN           
M_VEDIC_4x4_1_ADDER_6x6_1_FA_2_HA2_M14         $D_HI
+  VEDIC_4x4_1_ADDER_6x6_1_FA_2_HA2_N11593
+  VEDIC_4x4_1_ADDER_6x6_1_FA_2_HA2_N09404 $D_HI MbreakP           
M_VEDIC_4x4_1_ADDER_6x6_1_FA_2_HA2_M17         $D_HI
+  VEDIC_4x4_1_ADDER_6x6_1_FA_2_N00311 VEDIC_4x4_1_ADDER_6x6_1_FA_2_HA2_N11628
+  $D_HI MbreakP           
M_VEDIC_4x4_1_ADDER_6x6_1_FA_2_HA2_M9         VEDIC_4x4_1_N03043
+  VEDIC_4x4_1_ADDER_6x6_1_N00597 VEDIC_4x4_1_ADDER_6x6_1_FA_2_HA2_N09191 0
+  MbreakN           
M_VEDIC_4x4_1_ADDER_6x6_1_FA_2_HA2_M15         $D_HI
+  VEDIC_4x4_1_ADDER_6x6_1_FA_2_HA2_N11628
+  VEDIC_4x4_1_ADDER_6x6_1_FA_2_HA2_N09404 $D_HI MbreakP           
M_VEDIC_4x4_1_ADDER_6x6_1_FA_2_HA2_M18        
+  VEDIC_4x4_1_ADDER_6x6_1_FA_2_HA2_N11593 VEDIC_4x4_1_ADDER_6x6_1_N00597 0 0
+  MbreakN           
M_VEDIC_4x4_1_ADDER_6x6_1_FA_2_HA2_M10         VEDIC_4x4_1_N03043
+  VEDIC_4x4_1_ADDER_6x6_1_FA_2_HA2_N11593
+  VEDIC_4x4_1_ADDER_6x6_1_FA_2_HA2_N09076 0 MbreakN           
M_VEDIC_4x4_1_ADDER_6x6_1_FA_2_HA2_M19        
+  VEDIC_4x4_1_ADDER_6x6_1_FA_2_HA2_N11628 VEDIC_4x4_1_ADDER_6x6_1_FA_2_N00311 0
+  0 MbreakN           
M_VEDIC_4x4_1_ADDER_6x6_1_FA_2_M3         VEDIC_4x4_1_ADDER_6x6_1_FA_2_N01015
+  VEDIC_4x4_1_ADDER_6x6_1_FA_2_N01242 VEDIC_4x4_1_ADDER_6x6_1_FA_2_N00946 $D_HI
+  MbreakP           
M_VEDIC_4x4_1_ADDER_6x6_1_FA_2_M2         VEDIC_4x4_1_ADDER_6x6_1_FA_2_N00946
+  VEDIC_4x4_1_ADDER_6x6_1_FA_2_N01242 0 0 MbreakN           
M_VEDIC_4x4_1_ADDER_6x6_1_FA_2_M4         $D_HI
+  VEDIC_4x4_1_ADDER_6x6_1_FA_2_N01184 VEDIC_4x4_1_ADDER_6x6_1_FA_2_N01015 $D_HI
+  MbreakP           
M_VEDIC_4x4_1_ADDER_6x6_1_FA_2_M5         $D_HI
+  VEDIC_4x4_1_ADDER_6x6_1_FA_2_N00946 VEDIC_4x4_1_ADDER_6x6_1_Q6 $D_HI MbreakP  
+          
M_VEDIC_4x4_1_ADDER_4X4_1_HA_1_M11         VEDIC_4x4_1_ADDER_4X4_1_HA_1_N09191
+  VEDIC_4x4_1_N00770 0 0 MbreakN           
M_VEDIC_4x4_1_ADDER_4X4_1_HA_1_M5         $D_HI VEDIC_4x4_1_N00770
+  VEDIC_4x4_1_ADDER_4X4_1_HA_1_N06579 $D_HI MbreakP           
M_VEDIC_4x4_1_ADDER_4X4_1_HA_1_M2         VEDIC_4x4_1_ADDER_4X4_1_HA_1_N06008
+  VEDIC_4x4_1_N00770 0 0 MbreakN           
M_VEDIC_4x4_1_ADDER_4X4_1_HA_1_M4         $D_HI VEDIC_4x4_1_N00459
+  VEDIC_4x4_1_ADDER_4X4_1_HA_1_N06579 $D_HI MbreakP           
M_VEDIC_4x4_1_ADDER_4X4_1_HA_1_M12         VEDIC_4x4_1_ADDER_4X4_1_HA_1_N09404
+  VEDIC_4x4_1_N00459 VEDIC_4x4_1_N02786 $D_HI MbreakP           
M_VEDIC_4x4_1_ADDER_4X4_1_HA_1_M1         VEDIC_4x4_1_ADDER_4X4_1_HA_1_N06579
+  VEDIC_4x4_1_N00459 VEDIC_4x4_1_ADDER_4X4_1_HA_1_N06008 0 MbreakN           
M_VEDIC_4x4_1_ADDER_4X4_1_HA_1_M6         $D_HI
+  VEDIC_4x4_1_ADDER_4X4_1_HA_1_N06579 VEDIC_4x4_1_ADDER_4X4_1_N00531 $D_HI
+  MbreakP           
M_VEDIC_4x4_1_ADDER_4X4_1_HA_1_M13         VEDIC_4x4_1_ADDER_4X4_1_HA_1_N09404
+  VEDIC_4x4_1_N00770 VEDIC_4x4_1_N02786 $D_HI MbreakP           
M_VEDIC_4x4_1_ADDER_4X4_1_HA_1_M3         VEDIC_4x4_1_ADDER_4X4_1_N00531
+  VEDIC_4x4_1_ADDER_4X4_1_HA_1_N06579 0 0 MbreakN           
M_VEDIC_4x4_1_ADDER_4X4_1_HA_1_M16         $D_HI VEDIC_4x4_1_N00459
+  VEDIC_4x4_1_ADDER_4X4_1_HA_1_N11593 $D_HI MbreakP           
M_VEDIC_4x4_1_ADDER_4X4_1_HA_1_M8         VEDIC_4x4_1_ADDER_4X4_1_HA_1_N09076
+  VEDIC_4x4_1_ADDER_4X4_1_HA_1_N11628 0 0 MbreakN           
M_VEDIC_4x4_1_ADDER_4X4_1_HA_1_M14         $D_HI
+  VEDIC_4x4_1_ADDER_4X4_1_HA_1_N11593 VEDIC_4x4_1_ADDER_4X4_1_HA_1_N09404 $D_HI
+  MbreakP           
M_VEDIC_4x4_1_ADDER_4X4_1_HA_1_M17         $D_HI VEDIC_4x4_1_N00770
+  VEDIC_4x4_1_ADDER_4X4_1_HA_1_N11628 $D_HI MbreakP           
M_VEDIC_4x4_1_ADDER_4X4_1_HA_1_M9         VEDIC_4x4_1_N02786 VEDIC_4x4_1_N00459
+  VEDIC_4x4_1_ADDER_4X4_1_HA_1_N09191 0 MbreakN           
M_VEDIC_4x4_1_ADDER_4X4_1_HA_1_M15         $D_HI
+  VEDIC_4x4_1_ADDER_4X4_1_HA_1_N11628 VEDIC_4x4_1_ADDER_4X4_1_HA_1_N09404 $D_HI
+  MbreakP           
M_VEDIC_4x4_1_ADDER_4X4_1_HA_1_M18         VEDIC_4x4_1_ADDER_4X4_1_HA_1_N11593
+  VEDIC_4x4_1_N00459 0 0 MbreakN           
M_VEDIC_4x4_1_ADDER_4X4_1_HA_1_M10         VEDIC_4x4_1_N02786
+  VEDIC_4x4_1_ADDER_4X4_1_HA_1_N11593 VEDIC_4x4_1_ADDER_4X4_1_HA_1_N09076 0
+  MbreakN           
M_VEDIC_4x4_1_ADDER_4X4_1_HA_1_M19         VEDIC_4x4_1_ADDER_4X4_1_HA_1_N11628
+  VEDIC_4x4_1_N00770 0 0 MbreakN           
M_VEDIC_4x4_1_ADDER_4X4_1_FA_1_M6         VEDIC_4x4_1_ADDER_4X4_1_N00549
+  VEDIC_4x4_1_ADDER_4X4_1_FA_1_N00946 0 0 MbreakN           
M_VEDIC_4x4_1_ADDER_4X4_1_FA_1_HA1_M11        
+  VEDIC_4x4_1_ADDER_4X4_1_FA_1_HA1_N09191 VEDIC_4x4_1_N00781 0 0 MbreakN        
+    
M_VEDIC_4x4_1_ADDER_4X4_1_FA_1_HA1_M5         $D_HI VEDIC_4x4_1_N00781
+  VEDIC_4x4_1_ADDER_4X4_1_FA_1_HA1_N06579 $D_HI MbreakP           
M_VEDIC_4x4_1_ADDER_4X4_1_FA_1_HA1_M2        
+  VEDIC_4x4_1_ADDER_4X4_1_FA_1_HA1_N06008 VEDIC_4x4_1_N00781 0 0 MbreakN        
+    
M_VEDIC_4x4_1_ADDER_4X4_1_FA_1_HA1_M4         $D_HI VEDIC_4x4_1_N00477
+  VEDIC_4x4_1_ADDER_4X4_1_FA_1_HA1_N06579 $D_HI MbreakP           
M_VEDIC_4x4_1_ADDER_4X4_1_FA_1_HA1_M12        
+  VEDIC_4x4_1_ADDER_4X4_1_FA_1_HA1_N09404 VEDIC_4x4_1_N00477
+  VEDIC_4x4_1_ADDER_4X4_1_FA_1_N00311 $D_HI MbreakP           
M_VEDIC_4x4_1_ADDER_4X4_1_FA_1_HA1_M1        
+  VEDIC_4x4_1_ADDER_4X4_1_FA_1_HA1_N06579 VEDIC_4x4_1_N00477
+  VEDIC_4x4_1_ADDER_4X4_1_FA_1_HA1_N06008 0 MbreakN           
M_VEDIC_4x4_1_ADDER_4X4_1_FA_1_HA1_M6         $D_HI
+  VEDIC_4x4_1_ADDER_4X4_1_FA_1_HA1_N06579 VEDIC_4x4_1_ADDER_4X4_1_FA_1_N01184
+  $D_HI MbreakP           
M_VEDIC_4x4_1_ADDER_4X4_1_FA_1_HA1_M13        
+  VEDIC_4x4_1_ADDER_4X4_1_FA_1_HA1_N09404 VEDIC_4x4_1_N00781
+  VEDIC_4x4_1_ADDER_4X4_1_FA_1_N00311 $D_HI MbreakP           
M_VEDIC_4x4_1_ADDER_4X4_1_FA_1_HA1_M3        
+  VEDIC_4x4_1_ADDER_4X4_1_FA_1_N01184 VEDIC_4x4_1_ADDER_4X4_1_FA_1_HA1_N06579 0
+  0 MbreakN           
M_VEDIC_4x4_1_ADDER_4X4_1_FA_1_HA1_M16         $D_HI VEDIC_4x4_1_N00477
+  VEDIC_4x4_1_ADDER_4X4_1_FA_1_HA1_N11593 $D_HI MbreakP           
M_VEDIC_4x4_1_ADDER_4X4_1_FA_1_HA1_M8        
+  VEDIC_4x4_1_ADDER_4X4_1_FA_1_HA1_N09076
+  VEDIC_4x4_1_ADDER_4X4_1_FA_1_HA1_N11628 0 0 MbreakN           
M_VEDIC_4x4_1_ADDER_4X4_1_FA_1_HA1_M14         $D_HI
+  VEDIC_4x4_1_ADDER_4X4_1_FA_1_HA1_N11593
+  VEDIC_4x4_1_ADDER_4X4_1_FA_1_HA1_N09404 $D_HI MbreakP           
M_VEDIC_4x4_1_ADDER_4X4_1_FA_1_HA1_M17         $D_HI VEDIC_4x4_1_N00781
+  VEDIC_4x4_1_ADDER_4X4_1_FA_1_HA1_N11628 $D_HI MbreakP           
M_VEDIC_4x4_1_ADDER_4X4_1_FA_1_HA1_M9        
+  VEDIC_4x4_1_ADDER_4X4_1_FA_1_N00311 VEDIC_4x4_1_N00477
+  VEDIC_4x4_1_ADDER_4X4_1_FA_1_HA1_N09191 0 MbreakN           
M_VEDIC_4x4_1_ADDER_4X4_1_FA_1_HA1_M15         $D_HI
+  VEDIC_4x4_1_ADDER_4X4_1_FA_1_HA1_N11628
+  VEDIC_4x4_1_ADDER_4X4_1_FA_1_HA1_N09404 $D_HI MbreakP           
M_VEDIC_4x4_1_ADDER_4X4_1_FA_1_HA1_M18        
+  VEDIC_4x4_1_ADDER_4X4_1_FA_1_HA1_N11593 VEDIC_4x4_1_N00477 0 0 MbreakN        
+    
M_VEDIC_4x4_1_ADDER_4X4_1_FA_1_HA1_M10        
+  VEDIC_4x4_1_ADDER_4X4_1_FA_1_N00311 VEDIC_4x4_1_ADDER_4X4_1_FA_1_HA1_N11593
+  VEDIC_4x4_1_ADDER_4X4_1_FA_1_HA1_N09076 0 MbreakN           
M_VEDIC_4x4_1_ADDER_4X4_1_FA_1_HA1_M19        
+  VEDIC_4x4_1_ADDER_4X4_1_FA_1_HA1_N11628 VEDIC_4x4_1_N00781 0 0 MbreakN        
+    
M_VEDIC_4x4_1_ADDER_4X4_1_FA_1_M1         VEDIC_4x4_1_ADDER_4X4_1_FA_1_N00946
+  VEDIC_4x4_1_ADDER_4X4_1_FA_1_N01184 0 0 MbreakN           
M_VEDIC_4x4_1_ADDER_4X4_1_FA_1_HA2_M11        
+  VEDIC_4x4_1_ADDER_4X4_1_FA_1_HA2_N09191 VEDIC_4x4_1_ADDER_4X4_1_FA_1_N00311 0
+  0 MbreakN           
M_VEDIC_4x4_1_ADDER_4X4_1_FA_1_HA2_M5         $D_HI
+  VEDIC_4x4_1_ADDER_4X4_1_FA_1_N00311 VEDIC_4x4_1_ADDER_4X4_1_FA_1_HA2_N06579
+  $D_HI MbreakP           
M_VEDIC_4x4_1_ADDER_4X4_1_FA_1_HA2_M2        
+  VEDIC_4x4_1_ADDER_4X4_1_FA_1_HA2_N06008 VEDIC_4x4_1_ADDER_4X4_1_FA_1_N00311 0
+  0 MbreakN           
M_VEDIC_4x4_1_ADDER_4X4_1_FA_1_HA2_M4         $D_HI
+  VEDIC_4x4_1_ADDER_4X4_1_N00531 VEDIC_4x4_1_ADDER_4X4_1_FA_1_HA2_N06579 $D_HI
+  MbreakP           
M_VEDIC_4x4_1_ADDER_4X4_1_FA_1_HA2_M12        
+  VEDIC_4x4_1_ADDER_4X4_1_FA_1_HA2_N09404 VEDIC_4x4_1_ADDER_4X4_1_N00531
+  VEDIC_4x4_1_N02880 $D_HI MbreakP           
M_VEDIC_4x4_1_ADDER_4X4_1_FA_1_HA2_M1        
+  VEDIC_4x4_1_ADDER_4X4_1_FA_1_HA2_N06579 VEDIC_4x4_1_ADDER_4X4_1_N00531
+  VEDIC_4x4_1_ADDER_4X4_1_FA_1_HA2_N06008 0 MbreakN           
M_VEDIC_4x4_1_ADDER_4X4_1_FA_1_HA2_M6         $D_HI
+  VEDIC_4x4_1_ADDER_4X4_1_FA_1_HA2_N06579 VEDIC_4x4_1_ADDER_4X4_1_FA_1_N01242
+  $D_HI MbreakP           
M_VEDIC_4x4_1_ADDER_4X4_1_FA_1_HA2_M13        
+  VEDIC_4x4_1_ADDER_4X4_1_FA_1_HA2_N09404 VEDIC_4x4_1_ADDER_4X4_1_FA_1_N00311
+  VEDIC_4x4_1_N02880 $D_HI MbreakP           
M_VEDIC_4x4_1_ADDER_4X4_1_FA_1_HA2_M3        
+  VEDIC_4x4_1_ADDER_4X4_1_FA_1_N01242 VEDIC_4x4_1_ADDER_4X4_1_FA_1_HA2_N06579 0
+  0 MbreakN           
M_VEDIC_4x4_1_ADDER_4X4_1_FA_1_HA2_M16         $D_HI
+  VEDIC_4x4_1_ADDER_4X4_1_N00531 VEDIC_4x4_1_ADDER_4X4_1_FA_1_HA2_N11593 $D_HI
+  MbreakP           
M_VEDIC_4x4_1_ADDER_4X4_1_FA_1_HA2_M8        
+  VEDIC_4x4_1_ADDER_4X4_1_FA_1_HA2_N09076
+  VEDIC_4x4_1_ADDER_4X4_1_FA_1_HA2_N11628 0 0 MbreakN           
M_VEDIC_4x4_1_ADDER_4X4_1_FA_1_HA2_M14         $D_HI
+  VEDIC_4x4_1_ADDER_4X4_1_FA_1_HA2_N11593
+  VEDIC_4x4_1_ADDER_4X4_1_FA_1_HA2_N09404 $D_HI MbreakP           
M_VEDIC_4x4_1_ADDER_4X4_1_FA_1_HA2_M17         $D_HI
+  VEDIC_4x4_1_ADDER_4X4_1_FA_1_N00311 VEDIC_4x4_1_ADDER_4X4_1_FA_1_HA2_N11628
+  $D_HI MbreakP           
M_VEDIC_4x4_1_ADDER_4X4_1_FA_1_HA2_M9         VEDIC_4x4_1_N02880
+  VEDIC_4x4_1_ADDER_4X4_1_N00531 VEDIC_4x4_1_ADDER_4X4_1_FA_1_HA2_N09191 0
+  MbreakN           
M_VEDIC_4x4_1_ADDER_4X4_1_FA_1_HA2_M15         $D_HI
+  VEDIC_4x4_1_ADDER_4X4_1_FA_1_HA2_N11628
+  VEDIC_4x4_1_ADDER_4X4_1_FA_1_HA2_N09404 $D_HI MbreakP           
M_VEDIC_4x4_1_ADDER_4X4_1_FA_1_HA2_M18        
+  VEDIC_4x4_1_ADDER_4X4_1_FA_1_HA2_N11593 VEDIC_4x4_1_ADDER_4X4_1_N00531 0 0
+  MbreakN           
M_VEDIC_4x4_1_ADDER_4X4_1_FA_1_HA2_M10         VEDIC_4x4_1_N02880
+  VEDIC_4x4_1_ADDER_4X4_1_FA_1_HA2_N11593
+  VEDIC_4x4_1_ADDER_4X4_1_FA_1_HA2_N09076 0 MbreakN           
M_VEDIC_4x4_1_ADDER_4X4_1_FA_1_HA2_M19        
+  VEDIC_4x4_1_ADDER_4X4_1_FA_1_HA2_N11628 VEDIC_4x4_1_ADDER_4X4_1_FA_1_N00311 0
+  0 MbreakN           
M_VEDIC_4x4_1_ADDER_4X4_1_FA_1_M3         VEDIC_4x4_1_ADDER_4X4_1_FA_1_N01015
+  VEDIC_4x4_1_ADDER_4X4_1_FA_1_N01242 VEDIC_4x4_1_ADDER_4X4_1_FA_1_N00946 $D_HI
+  MbreakP           
M_VEDIC_4x4_1_ADDER_4X4_1_FA_1_M2         VEDIC_4x4_1_ADDER_4X4_1_FA_1_N00946
+  VEDIC_4x4_1_ADDER_4X4_1_FA_1_N01242 0 0 MbreakN           
M_VEDIC_4x4_1_ADDER_4X4_1_FA_1_M4         $D_HI
+  VEDIC_4x4_1_ADDER_4X4_1_FA_1_N01184 VEDIC_4x4_1_ADDER_4X4_1_FA_1_N01015 $D_HI
+  MbreakP           
M_VEDIC_4x4_1_ADDER_4X4_1_FA_1_M5         $D_HI
+  VEDIC_4x4_1_ADDER_4X4_1_FA_1_N00946 VEDIC_4x4_1_ADDER_4X4_1_N00549 $D_HI
+  MbreakP           
M_VEDIC_4x4_1_ADDER_4X4_1_FA_2_M6         VEDIC_4x4_1_ADDER_4X4_1_N00567
+  VEDIC_4x4_1_ADDER_4X4_1_FA_2_N00946 0 0 MbreakN           
M_VEDIC_4x4_1_ADDER_4X4_1_FA_2_HA1_M11        
+  VEDIC_4x4_1_ADDER_4X4_1_FA_2_HA1_N09191 VEDIC_4x4_1_N00799 0 0 MbreakN        
+    
M_VEDIC_4x4_1_ADDER_4X4_1_FA_2_HA1_M5         $D_HI VEDIC_4x4_1_N00799
+  VEDIC_4x4_1_ADDER_4X4_1_FA_2_HA1_N06579 $D_HI MbreakP           
M_VEDIC_4x4_1_ADDER_4X4_1_FA_2_HA1_M2        
+  VEDIC_4x4_1_ADDER_4X4_1_FA_2_HA1_N06008 VEDIC_4x4_1_N00799 0 0 MbreakN        
+    
M_VEDIC_4x4_1_ADDER_4X4_1_FA_2_HA1_M4         $D_HI 0
+  VEDIC_4x4_1_ADDER_4X4_1_FA_2_HA1_N06579 $D_HI MbreakP           
M_VEDIC_4x4_1_ADDER_4X4_1_FA_2_HA1_M12        
+  VEDIC_4x4_1_ADDER_4X4_1_FA_2_HA1_N09404 0 VEDIC_4x4_1_ADDER_4X4_1_FA_2_N00311
+  $D_HI MbreakP           
M_VEDIC_4x4_1_ADDER_4X4_1_FA_2_HA1_M1        
+  VEDIC_4x4_1_ADDER_4X4_1_FA_2_HA1_N06579 0
+  VEDIC_4x4_1_ADDER_4X4_1_FA_2_HA1_N06008 0 MbreakN           
M_VEDIC_4x4_1_ADDER_4X4_1_FA_2_HA1_M6         $D_HI
+  VEDIC_4x4_1_ADDER_4X4_1_FA_2_HA1_N06579 VEDIC_4x4_1_ADDER_4X4_1_FA_2_N01184
+  $D_HI MbreakP           
M_VEDIC_4x4_1_ADDER_4X4_1_FA_2_HA1_M13        
+  VEDIC_4x4_1_ADDER_4X4_1_FA_2_HA1_N09404 VEDIC_4x4_1_N00799
+  VEDIC_4x4_1_ADDER_4X4_1_FA_2_N00311 $D_HI MbreakP           
M_VEDIC_4x4_1_ADDER_4X4_1_FA_2_HA1_M3        
+  VEDIC_4x4_1_ADDER_4X4_1_FA_2_N01184 VEDIC_4x4_1_ADDER_4X4_1_FA_2_HA1_N06579 0
+  0 MbreakN           
M_VEDIC_4x4_1_ADDER_4X4_1_FA_2_HA1_M16         $D_HI 0
+  VEDIC_4x4_1_ADDER_4X4_1_FA_2_HA1_N11593 $D_HI MbreakP           
M_VEDIC_4x4_1_ADDER_4X4_1_FA_2_HA1_M8        
+  VEDIC_4x4_1_ADDER_4X4_1_FA_2_HA1_N09076
+  VEDIC_4x4_1_ADDER_4X4_1_FA_2_HA1_N11628 0 0 MbreakN           
M_VEDIC_4x4_1_ADDER_4X4_1_FA_2_HA1_M14         $D_HI
+  VEDIC_4x4_1_ADDER_4X4_1_FA_2_HA1_N11593
+  VEDIC_4x4_1_ADDER_4X4_1_FA_2_HA1_N09404 $D_HI MbreakP           
M_VEDIC_4x4_1_ADDER_4X4_1_FA_2_HA1_M17         $D_HI VEDIC_4x4_1_N00799
+  VEDIC_4x4_1_ADDER_4X4_1_FA_2_HA1_N11628 $D_HI MbreakP           
M_VEDIC_4x4_1_ADDER_4X4_1_FA_2_HA1_M9        
+  VEDIC_4x4_1_ADDER_4X4_1_FA_2_N00311 0 VEDIC_4x4_1_ADDER_4X4_1_FA_2_HA1_N09191
+  0 MbreakN           
M_VEDIC_4x4_1_ADDER_4X4_1_FA_2_HA1_M15         $D_HI
+  VEDIC_4x4_1_ADDER_4X4_1_FA_2_HA1_N11628
+  VEDIC_4x4_1_ADDER_4X4_1_FA_2_HA1_N09404 $D_HI MbreakP           
M_VEDIC_4x4_1_ADDER_4X4_1_FA_2_HA1_M18        
+  VEDIC_4x4_1_ADDER_4X4_1_FA_2_HA1_N11593 0 0 0 MbreakN           
M_VEDIC_4x4_1_ADDER_4X4_1_FA_2_HA1_M10        
+  VEDIC_4x4_1_ADDER_4X4_1_FA_2_N00311 VEDIC_4x4_1_ADDER_4X4_1_FA_2_HA1_N11593
+  VEDIC_4x4_1_ADDER_4X4_1_FA_2_HA1_N09076 0 MbreakN           
M_VEDIC_4x4_1_ADDER_4X4_1_FA_2_HA1_M19        
+  VEDIC_4x4_1_ADDER_4X4_1_FA_2_HA1_N11628 VEDIC_4x4_1_N00799 0 0 MbreakN        
+    
M_VEDIC_4x4_1_ADDER_4X4_1_FA_2_M1         VEDIC_4x4_1_ADDER_4X4_1_FA_2_N00946
+  VEDIC_4x4_1_ADDER_4X4_1_FA_2_N01184 0 0 MbreakN           
M_VEDIC_4x4_1_ADDER_4X4_1_FA_2_HA2_M11        
+  VEDIC_4x4_1_ADDER_4X4_1_FA_2_HA2_N09191 VEDIC_4x4_1_ADDER_4X4_1_FA_2_N00311 0
+  0 MbreakN           
M_VEDIC_4x4_1_ADDER_4X4_1_FA_2_HA2_M5         $D_HI
+  VEDIC_4x4_1_ADDER_4X4_1_FA_2_N00311 VEDIC_4x4_1_ADDER_4X4_1_FA_2_HA2_N06579
+  $D_HI MbreakP           
M_VEDIC_4x4_1_ADDER_4X4_1_FA_2_HA2_M2        
+  VEDIC_4x4_1_ADDER_4X4_1_FA_2_HA2_N06008 VEDIC_4x4_1_ADDER_4X4_1_FA_2_N00311 0
+  0 MbreakN           
M_VEDIC_4x4_1_ADDER_4X4_1_FA_2_HA2_M4         $D_HI
+  VEDIC_4x4_1_ADDER_4X4_1_N00549 VEDIC_4x4_1_ADDER_4X4_1_FA_2_HA2_N06579 $D_HI
+  MbreakP           
M_VEDIC_4x4_1_ADDER_4X4_1_FA_2_HA2_M12        
+  VEDIC_4x4_1_ADDER_4X4_1_FA_2_HA2_N09404 VEDIC_4x4_1_ADDER_4X4_1_N00549
+  VEDIC_4x4_1_N02898 $D_HI MbreakP           
M_VEDIC_4x4_1_ADDER_4X4_1_FA_2_HA2_M1        
+  VEDIC_4x4_1_ADDER_4X4_1_FA_2_HA2_N06579 VEDIC_4x4_1_ADDER_4X4_1_N00549
+  VEDIC_4x4_1_ADDER_4X4_1_FA_2_HA2_N06008 0 MbreakN           
M_VEDIC_4x4_1_ADDER_4X4_1_FA_2_HA2_M6         $D_HI
+  VEDIC_4x4_1_ADDER_4X4_1_FA_2_HA2_N06579 VEDIC_4x4_1_ADDER_4X4_1_FA_2_N01242
+  $D_HI MbreakP           
M_VEDIC_4x4_1_ADDER_4X4_1_FA_2_HA2_M13        
+  VEDIC_4x4_1_ADDER_4X4_1_FA_2_HA2_N09404 VEDIC_4x4_1_ADDER_4X4_1_FA_2_N00311
+  VEDIC_4x4_1_N02898 $D_HI MbreakP           
M_VEDIC_4x4_1_ADDER_4X4_1_FA_2_HA2_M3        
+  VEDIC_4x4_1_ADDER_4X4_1_FA_2_N01242 VEDIC_4x4_1_ADDER_4X4_1_FA_2_HA2_N06579 0
+  0 MbreakN           
M_VEDIC_4x4_1_ADDER_4X4_1_FA_2_HA2_M16         $D_HI
+  VEDIC_4x4_1_ADDER_4X4_1_N00549 VEDIC_4x4_1_ADDER_4X4_1_FA_2_HA2_N11593 $D_HI
+  MbreakP           
M_VEDIC_4x4_1_ADDER_4X4_1_FA_2_HA2_M8        
+  VEDIC_4x4_1_ADDER_4X4_1_FA_2_HA2_N09076
+  VEDIC_4x4_1_ADDER_4X4_1_FA_2_HA2_N11628 0 0 MbreakN           
M_VEDIC_4x4_1_ADDER_4X4_1_FA_2_HA2_M14         $D_HI
+  VEDIC_4x4_1_ADDER_4X4_1_FA_2_HA2_N11593
+  VEDIC_4x4_1_ADDER_4X4_1_FA_2_HA2_N09404 $D_HI MbreakP           
M_VEDIC_4x4_1_ADDER_4X4_1_FA_2_HA2_M17         $D_HI
+  VEDIC_4x4_1_ADDER_4X4_1_FA_2_N00311 VEDIC_4x4_1_ADDER_4X4_1_FA_2_HA2_N11628
+  $D_HI MbreakP           
M_VEDIC_4x4_1_ADDER_4X4_1_FA_2_HA2_M9         VEDIC_4x4_1_N02898
+  VEDIC_4x4_1_ADDER_4X4_1_N00549 VEDIC_4x4_1_ADDER_4X4_1_FA_2_HA2_N09191 0
+  MbreakN           
M_VEDIC_4x4_1_ADDER_4X4_1_FA_2_HA2_M15         $D_HI
+  VEDIC_4x4_1_ADDER_4X4_1_FA_2_HA2_N11628
+  VEDIC_4x4_1_ADDER_4X4_1_FA_2_HA2_N09404 $D_HI MbreakP           
M_VEDIC_4x4_1_ADDER_4X4_1_FA_2_HA2_M18        
+  VEDIC_4x4_1_ADDER_4X4_1_FA_2_HA2_N11593 VEDIC_4x4_1_ADDER_4X4_1_N00549 0 0
+  MbreakN           
M_VEDIC_4x4_1_ADDER_4X4_1_FA_2_HA2_M10         VEDIC_4x4_1_N02898
+  VEDIC_4x4_1_ADDER_4X4_1_FA_2_HA2_N11593
+  VEDIC_4x4_1_ADDER_4X4_1_FA_2_HA2_N09076 0 MbreakN           
M_VEDIC_4x4_1_ADDER_4X4_1_FA_2_HA2_M19        
+  VEDIC_4x4_1_ADDER_4X4_1_FA_2_HA2_N11628 VEDIC_4x4_1_ADDER_4X4_1_FA_2_N00311 0
+  0 MbreakN           
M_VEDIC_4x4_1_ADDER_4X4_1_FA_2_M3         VEDIC_4x4_1_ADDER_4X4_1_FA_2_N01015
+  VEDIC_4x4_1_ADDER_4X4_1_FA_2_N01242 VEDIC_4x4_1_ADDER_4X4_1_FA_2_N00946 $D_HI
+  MbreakP           
M_VEDIC_4x4_1_ADDER_4X4_1_FA_2_M2         VEDIC_4x4_1_ADDER_4X4_1_FA_2_N00946
+  VEDIC_4x4_1_ADDER_4X4_1_FA_2_N01242 0 0 MbreakN           
M_VEDIC_4x4_1_ADDER_4X4_1_FA_2_M4         $D_HI
+  VEDIC_4x4_1_ADDER_4X4_1_FA_2_N01184 VEDIC_4x4_1_ADDER_4X4_1_FA_2_N01015 $D_HI
+  MbreakP           
M_VEDIC_4x4_1_ADDER_4X4_1_FA_2_M5         $D_HI
+  VEDIC_4x4_1_ADDER_4X4_1_FA_2_N00946 VEDIC_4x4_1_ADDER_4X4_1_N00567 $D_HI
+  MbreakP           
M_VEDIC_4x4_1_ADDER_4X4_1_FA_3_M6         VEDIC_4x4_1_N02949
+  VEDIC_4x4_1_ADDER_4X4_1_FA_3_N00946 0 0 MbreakN           
M_VEDIC_4x4_1_ADDER_4X4_1_FA_3_HA1_M11        
+  VEDIC_4x4_1_ADDER_4X4_1_FA_3_HA1_N09191 VEDIC_4x4_1_N00828 0 0 MbreakN        
+    
M_VEDIC_4x4_1_ADDER_4X4_1_FA_3_HA1_M5         $D_HI VEDIC_4x4_1_N00828
+  VEDIC_4x4_1_ADDER_4X4_1_FA_3_HA1_N06579 $D_HI MbreakP           
M_VEDIC_4x4_1_ADDER_4X4_1_FA_3_HA1_M2        
+  VEDIC_4x4_1_ADDER_4X4_1_FA_3_HA1_N06008 VEDIC_4x4_1_N00828 0 0 MbreakN        
+    
M_VEDIC_4x4_1_ADDER_4X4_1_FA_3_HA1_M4         $D_HI 0
+  VEDIC_4x4_1_ADDER_4X4_1_FA_3_HA1_N06579 $D_HI MbreakP           
M_VEDIC_4x4_1_ADDER_4X4_1_FA_3_HA1_M12        
+  VEDIC_4x4_1_ADDER_4X4_1_FA_3_HA1_N09404 0 VEDIC_4x4_1_ADDER_4X4_1_FA_3_N00311
+  $D_HI MbreakP           
M_VEDIC_4x4_1_ADDER_4X4_1_FA_3_HA1_M1        
+  VEDIC_4x4_1_ADDER_4X4_1_FA_3_HA1_N06579 0
+  VEDIC_4x4_1_ADDER_4X4_1_FA_3_HA1_N06008 0 MbreakN           
M_VEDIC_4x4_1_ADDER_4X4_1_FA_3_HA1_M6         $D_HI
+  VEDIC_4x4_1_ADDER_4X4_1_FA_3_HA1_N06579 VEDIC_4x4_1_ADDER_4X4_1_FA_3_N01184
+  $D_HI MbreakP           
M_VEDIC_4x4_1_ADDER_4X4_1_FA_3_HA1_M13        
+  VEDIC_4x4_1_ADDER_4X4_1_FA_3_HA1_N09404 VEDIC_4x4_1_N00828
+  VEDIC_4x4_1_ADDER_4X4_1_FA_3_N00311 $D_HI MbreakP           
M_VEDIC_4x4_1_ADDER_4X4_1_FA_3_HA1_M3        
+  VEDIC_4x4_1_ADDER_4X4_1_FA_3_N01184 VEDIC_4x4_1_ADDER_4X4_1_FA_3_HA1_N06579 0
+  0 MbreakN           
M_VEDIC_4x4_1_ADDER_4X4_1_FA_3_HA1_M16         $D_HI 0
+  VEDIC_4x4_1_ADDER_4X4_1_FA_3_HA1_N11593 $D_HI MbreakP           
M_VEDIC_4x4_1_ADDER_4X4_1_FA_3_HA1_M8        
+  VEDIC_4x4_1_ADDER_4X4_1_FA_3_HA1_N09076
+  VEDIC_4x4_1_ADDER_4X4_1_FA_3_HA1_N11628 0 0 MbreakN           
M_VEDIC_4x4_1_ADDER_4X4_1_FA_3_HA1_M14         $D_HI
+  VEDIC_4x4_1_ADDER_4X4_1_FA_3_HA1_N11593
+  VEDIC_4x4_1_ADDER_4X4_1_FA_3_HA1_N09404 $D_HI MbreakP           
M_VEDIC_4x4_1_ADDER_4X4_1_FA_3_HA1_M17         $D_HI VEDIC_4x4_1_N00828
+  VEDIC_4x4_1_ADDER_4X4_1_FA_3_HA1_N11628 $D_HI MbreakP           
M_VEDIC_4x4_1_ADDER_4X4_1_FA_3_HA1_M9        
+  VEDIC_4x4_1_ADDER_4X4_1_FA_3_N00311 0 VEDIC_4x4_1_ADDER_4X4_1_FA_3_HA1_N09191
+  0 MbreakN           
M_VEDIC_4x4_1_ADDER_4X4_1_FA_3_HA1_M15         $D_HI
+  VEDIC_4x4_1_ADDER_4X4_1_FA_3_HA1_N11628
+  VEDIC_4x4_1_ADDER_4X4_1_FA_3_HA1_N09404 $D_HI MbreakP           
M_VEDIC_4x4_1_ADDER_4X4_1_FA_3_HA1_M18        
+  VEDIC_4x4_1_ADDER_4X4_1_FA_3_HA1_N11593 0 0 0 MbreakN           
M_VEDIC_4x4_1_ADDER_4X4_1_FA_3_HA1_M10        
+  VEDIC_4x4_1_ADDER_4X4_1_FA_3_N00311 VEDIC_4x4_1_ADDER_4X4_1_FA_3_HA1_N11593
+  VEDIC_4x4_1_ADDER_4X4_1_FA_3_HA1_N09076 0 MbreakN           
M_VEDIC_4x4_1_ADDER_4X4_1_FA_3_HA1_M19        
+  VEDIC_4x4_1_ADDER_4X4_1_FA_3_HA1_N11628 VEDIC_4x4_1_N00828 0 0 MbreakN        
+    
M_VEDIC_4x4_1_ADDER_4X4_1_FA_3_M1         VEDIC_4x4_1_ADDER_4X4_1_FA_3_N00946
+  VEDIC_4x4_1_ADDER_4X4_1_FA_3_N01184 0 0 MbreakN           
M_VEDIC_4x4_1_ADDER_4X4_1_FA_3_HA2_M11        
+  VEDIC_4x4_1_ADDER_4X4_1_FA_3_HA2_N09191 VEDIC_4x4_1_ADDER_4X4_1_FA_3_N00311 0
+  0 MbreakN           
M_VEDIC_4x4_1_ADDER_4X4_1_FA_3_HA2_M5         $D_HI
+  VEDIC_4x4_1_ADDER_4X4_1_FA_3_N00311 VEDIC_4x4_1_ADDER_4X4_1_FA_3_HA2_N06579
+  $D_HI MbreakP           
M_VEDIC_4x4_1_ADDER_4X4_1_FA_3_HA2_M2        
+  VEDIC_4x4_1_ADDER_4X4_1_FA_3_HA2_N06008 VEDIC_4x4_1_ADDER_4X4_1_FA_3_N00311 0
+  0 MbreakN           
M_VEDIC_4x4_1_ADDER_4X4_1_FA_3_HA2_M4         $D_HI
+  VEDIC_4x4_1_ADDER_4X4_1_N00567 VEDIC_4x4_1_ADDER_4X4_1_FA_3_HA2_N06579 $D_HI
+  MbreakP           
M_VEDIC_4x4_1_ADDER_4X4_1_FA_3_HA2_M12        
+  VEDIC_4x4_1_ADDER_4X4_1_FA_3_HA2_N09404 VEDIC_4x4_1_ADDER_4X4_1_N00567
+  VEDIC_4x4_1_N02916 $D_HI MbreakP           
M_VEDIC_4x4_1_ADDER_4X4_1_FA_3_HA2_M1        
+  VEDIC_4x4_1_ADDER_4X4_1_FA_3_HA2_N06579 VEDIC_4x4_1_ADDER_4X4_1_N00567
+  VEDIC_4x4_1_ADDER_4X4_1_FA_3_HA2_N06008 0 MbreakN           
M_VEDIC_4x4_1_ADDER_4X4_1_FA_3_HA2_M6         $D_HI
+  VEDIC_4x4_1_ADDER_4X4_1_FA_3_HA2_N06579 VEDIC_4x4_1_ADDER_4X4_1_FA_3_N01242
+  $D_HI MbreakP           
M_VEDIC_4x4_1_ADDER_4X4_1_FA_3_HA2_M13        
+  VEDIC_4x4_1_ADDER_4X4_1_FA_3_HA2_N09404 VEDIC_4x4_1_ADDER_4X4_1_FA_3_N00311
+  VEDIC_4x4_1_N02916 $D_HI MbreakP           
M_VEDIC_4x4_1_ADDER_4X4_1_FA_3_HA2_M3        
+  VEDIC_4x4_1_ADDER_4X4_1_FA_3_N01242 VEDIC_4x4_1_ADDER_4X4_1_FA_3_HA2_N06579 0
+  0 MbreakN           
M_VEDIC_4x4_1_ADDER_4X4_1_FA_3_HA2_M16         $D_HI
+  VEDIC_4x4_1_ADDER_4X4_1_N00567 VEDIC_4x4_1_ADDER_4X4_1_FA_3_HA2_N11593 $D_HI
+  MbreakP           
M_VEDIC_4x4_1_ADDER_4X4_1_FA_3_HA2_M8        
+  VEDIC_4x4_1_ADDER_4X4_1_FA_3_HA2_N09076
+  VEDIC_4x4_1_ADDER_4X4_1_FA_3_HA2_N11628 0 0 MbreakN           
M_VEDIC_4x4_1_ADDER_4X4_1_FA_3_HA2_M14         $D_HI
+  VEDIC_4x4_1_ADDER_4X4_1_FA_3_HA2_N11593
+  VEDIC_4x4_1_ADDER_4X4_1_FA_3_HA2_N09404 $D_HI MbreakP           
M_VEDIC_4x4_1_ADDER_4X4_1_FA_3_HA2_M17         $D_HI
+  VEDIC_4x4_1_ADDER_4X4_1_FA_3_N00311 VEDIC_4x4_1_ADDER_4X4_1_FA_3_HA2_N11628
+  $D_HI MbreakP           
M_VEDIC_4x4_1_ADDER_4X4_1_FA_3_HA2_M9         VEDIC_4x4_1_N02916
+  VEDIC_4x4_1_ADDER_4X4_1_N00567 VEDIC_4x4_1_ADDER_4X4_1_FA_3_HA2_N09191 0
+  MbreakN           
M_VEDIC_4x4_1_ADDER_4X4_1_FA_3_HA2_M15         $D_HI
+  VEDIC_4x4_1_ADDER_4X4_1_FA_3_HA2_N11628
+  VEDIC_4x4_1_ADDER_4X4_1_FA_3_HA2_N09404 $D_HI MbreakP           
M_VEDIC_4x4_1_ADDER_4X4_1_FA_3_HA2_M18        
+  VEDIC_4x4_1_ADDER_4X4_1_FA_3_HA2_N11593 VEDIC_4x4_1_ADDER_4X4_1_N00567 0 0
+  MbreakN           
M_VEDIC_4x4_1_ADDER_4X4_1_FA_3_HA2_M10         VEDIC_4x4_1_N02916
+  VEDIC_4x4_1_ADDER_4X4_1_FA_3_HA2_N11593
+  VEDIC_4x4_1_ADDER_4X4_1_FA_3_HA2_N09076 0 MbreakN           
M_VEDIC_4x4_1_ADDER_4X4_1_FA_3_HA2_M19        
+  VEDIC_4x4_1_ADDER_4X4_1_FA_3_HA2_N11628 VEDIC_4x4_1_ADDER_4X4_1_FA_3_N00311 0
+  0 MbreakN           
M_VEDIC_4x4_1_ADDER_4X4_1_FA_3_M3         VEDIC_4x4_1_ADDER_4X4_1_FA_3_N01015
+  VEDIC_4x4_1_ADDER_4X4_1_FA_3_N01242 VEDIC_4x4_1_ADDER_4X4_1_FA_3_N00946 $D_HI
+  MbreakP           
M_VEDIC_4x4_1_ADDER_4X4_1_FA_3_M2         VEDIC_4x4_1_ADDER_4X4_1_FA_3_N00946
+  VEDIC_4x4_1_ADDER_4X4_1_FA_3_N01242 0 0 MbreakN           
M_VEDIC_4x4_1_ADDER_4X4_1_FA_3_M4         $D_HI
+  VEDIC_4x4_1_ADDER_4X4_1_FA_3_N01184 VEDIC_4x4_1_ADDER_4X4_1_FA_3_N01015 $D_HI
+  MbreakP           
M_VEDIC_4x4_1_ADDER_4X4_1_FA_3_M5         $D_HI
+  VEDIC_4x4_1_ADDER_4X4_1_FA_3_N00946 VEDIC_4x4_1_N02949 $D_HI MbreakP          
+  
M_VEDIC_4x4_1_ADDER_6x6_2_4x4_1_HA_1_M11        
+  VEDIC_4x4_1_ADDER_6x6_2_4x4_1_HA_1_N09191 VEDIC_4x4_1_N02988 0 0 MbreakN      
+      
M_VEDIC_4x4_1_ADDER_6x6_2_4x4_1_HA_1_M5         $D_HI VEDIC_4x4_1_N02988
+  VEDIC_4x4_1_ADDER_6x6_2_4x4_1_HA_1_N06579 $D_HI MbreakP           
M_VEDIC_4x4_1_ADDER_6x6_2_4x4_1_HA_1_M2        
+  VEDIC_4x4_1_ADDER_6x6_2_4x4_1_HA_1_N06008 VEDIC_4x4_1_N02988 0 0 MbreakN      
+      
M_VEDIC_4x4_1_ADDER_6x6_2_4x4_1_HA_1_M4         $D_HI VEDIC_4x4_1_N02786
+  VEDIC_4x4_1_ADDER_6x6_2_4x4_1_HA_1_N06579 $D_HI MbreakP           
M_VEDIC_4x4_1_ADDER_6x6_2_4x4_1_HA_1_M12        
+  VEDIC_4x4_1_ADDER_6x6_2_4x4_1_HA_1_N09404 VEDIC_4x4_1_N02786 N14035 $D_HI
+  MbreakP           
M_VEDIC_4x4_1_ADDER_6x6_2_4x4_1_HA_1_M1        
+  VEDIC_4x4_1_ADDER_6x6_2_4x4_1_HA_1_N06579 VEDIC_4x4_1_N02786
+  VEDIC_4x4_1_ADDER_6x6_2_4x4_1_HA_1_N06008 0 MbreakN           
M_VEDIC_4x4_1_ADDER_6x6_2_4x4_1_HA_1_M6         $D_HI
+  VEDIC_4x4_1_ADDER_6x6_2_4x4_1_HA_1_N06579 VEDIC_4x4_1_ADDER_6x6_2_4x4_1_N00531
+  $D_HI MbreakP           
M_VEDIC_4x4_1_ADDER_6x6_2_4x4_1_HA_1_M13        
+  VEDIC_4x4_1_ADDER_6x6_2_4x4_1_HA_1_N09404 VEDIC_4x4_1_N02988 N14035 $D_HI
+  MbreakP           
M_VEDIC_4x4_1_ADDER_6x6_2_4x4_1_HA_1_M3        
+  VEDIC_4x4_1_ADDER_6x6_2_4x4_1_N00531 VEDIC_4x4_1_ADDER_6x6_2_4x4_1_HA_1_N06579
+  0 0 MbreakN           
M_VEDIC_4x4_1_ADDER_6x6_2_4x4_1_HA_1_M16         $D_HI VEDIC_4x4_1_N02786
+  VEDIC_4x4_1_ADDER_6x6_2_4x4_1_HA_1_N11593 $D_HI MbreakP           
M_VEDIC_4x4_1_ADDER_6x6_2_4x4_1_HA_1_M8        
+  VEDIC_4x4_1_ADDER_6x6_2_4x4_1_HA_1_N09076
+  VEDIC_4x4_1_ADDER_6x6_2_4x4_1_HA_1_N11628 0 0 MbreakN           
M_VEDIC_4x4_1_ADDER_6x6_2_4x4_1_HA_1_M14         $D_HI
+  VEDIC_4x4_1_ADDER_6x6_2_4x4_1_HA_1_N11593
+  VEDIC_4x4_1_ADDER_6x6_2_4x4_1_HA_1_N09404 $D_HI MbreakP           
M_VEDIC_4x4_1_ADDER_6x6_2_4x4_1_HA_1_M17         $D_HI VEDIC_4x4_1_N02988
+  VEDIC_4x4_1_ADDER_6x6_2_4x4_1_HA_1_N11628 $D_HI MbreakP           
M_VEDIC_4x4_1_ADDER_6x6_2_4x4_1_HA_1_M9         N14035 VEDIC_4x4_1_N02786
+  VEDIC_4x4_1_ADDER_6x6_2_4x4_1_HA_1_N09191 0 MbreakN           
M_VEDIC_4x4_1_ADDER_6x6_2_4x4_1_HA_1_M15         $D_HI
+  VEDIC_4x4_1_ADDER_6x6_2_4x4_1_HA_1_N11628
+  VEDIC_4x4_1_ADDER_6x6_2_4x4_1_HA_1_N09404 $D_HI MbreakP           
M_VEDIC_4x4_1_ADDER_6x6_2_4x4_1_HA_1_M18        
+  VEDIC_4x4_1_ADDER_6x6_2_4x4_1_HA_1_N11593 VEDIC_4x4_1_N02786 0 0 MbreakN      
+      
M_VEDIC_4x4_1_ADDER_6x6_2_4x4_1_HA_1_M10         N14035
+  VEDIC_4x4_1_ADDER_6x6_2_4x4_1_HA_1_N11593
+  VEDIC_4x4_1_ADDER_6x6_2_4x4_1_HA_1_N09076 0 MbreakN           
M_VEDIC_4x4_1_ADDER_6x6_2_4x4_1_HA_1_M19        
+  VEDIC_4x4_1_ADDER_6x6_2_4x4_1_HA_1_N11628 VEDIC_4x4_1_N02988 0 0 MbreakN      
+      
M_VEDIC_4x4_1_ADDER_6x6_2_4x4_1_FA_1_M6        
+  VEDIC_4x4_1_ADDER_6x6_2_4x4_1_N00549 VEDIC_4x4_1_ADDER_6x6_2_4x4_1_FA_1_N00946
+  0 0 MbreakN           
M_VEDIC_4x4_1_ADDER_6x6_2_4x4_1_FA_1_HA1_M11        
+  VEDIC_4x4_1_ADDER_6x6_2_4x4_1_FA_1_HA1_N09191 VEDIC_4x4_1_N02999 0 0 MbreakN  
+          
M_VEDIC_4x4_1_ADDER_6x6_2_4x4_1_FA_1_HA1_M5         $D_HI VEDIC_4x4_1_N02999
+  VEDIC_4x4_1_ADDER_6x6_2_4x4_1_FA_1_HA1_N06579 $D_HI MbreakP           
M_VEDIC_4x4_1_ADDER_6x6_2_4x4_1_FA_1_HA1_M2        
+  VEDIC_4x4_1_ADDER_6x6_2_4x4_1_FA_1_HA1_N06008 VEDIC_4x4_1_N02999 0 0 MbreakN  
+          
M_VEDIC_4x4_1_ADDER_6x6_2_4x4_1_FA_1_HA1_M4         $D_HI VEDIC_4x4_1_N02880
+  VEDIC_4x4_1_ADDER_6x6_2_4x4_1_FA_1_HA1_N06579 $D_HI MbreakP           
M_VEDIC_4x4_1_ADDER_6x6_2_4x4_1_FA_1_HA1_M12        
+  VEDIC_4x4_1_ADDER_6x6_2_4x4_1_FA_1_HA1_N09404 VEDIC_4x4_1_N02880
+  VEDIC_4x4_1_ADDER_6x6_2_4x4_1_FA_1_N00311 $D_HI MbreakP           
M_VEDIC_4x4_1_ADDER_6x6_2_4x4_1_FA_1_HA1_M1        
+  VEDIC_4x4_1_ADDER_6x6_2_4x4_1_FA_1_HA1_N06579 VEDIC_4x4_1_N02880
+  VEDIC_4x4_1_ADDER_6x6_2_4x4_1_FA_1_HA1_N06008 0 MbreakN           
M_VEDIC_4x4_1_ADDER_6x6_2_4x4_1_FA_1_HA1_M6         $D_HI
+  VEDIC_4x4_1_ADDER_6x6_2_4x4_1_FA_1_HA1_N06579
+  VEDIC_4x4_1_ADDER_6x6_2_4x4_1_FA_1_N01184 $D_HI MbreakP           
M_VEDIC_4x4_1_ADDER_6x6_2_4x4_1_FA_1_HA1_M13        
+  VEDIC_4x4_1_ADDER_6x6_2_4x4_1_FA_1_HA1_N09404 VEDIC_4x4_1_N02999
+  VEDIC_4x4_1_ADDER_6x6_2_4x4_1_FA_1_N00311 $D_HI MbreakP           
M_VEDIC_4x4_1_ADDER_6x6_2_4x4_1_FA_1_HA1_M3        
+  VEDIC_4x4_1_ADDER_6x6_2_4x4_1_FA_1_N01184
+  VEDIC_4x4_1_ADDER_6x6_2_4x4_1_FA_1_HA1_N06579 0 0 MbreakN           
M_VEDIC_4x4_1_ADDER_6x6_2_4x4_1_FA_1_HA1_M16         $D_HI VEDIC_4x4_1_N02880
+  VEDIC_4x4_1_ADDER_6x6_2_4x4_1_FA_1_HA1_N11593 $D_HI MbreakP           
M_VEDIC_4x4_1_ADDER_6x6_2_4x4_1_FA_1_HA1_M8        
+  VEDIC_4x4_1_ADDER_6x6_2_4x4_1_FA_1_HA1_N09076
+  VEDIC_4x4_1_ADDER_6x6_2_4x4_1_FA_1_HA1_N11628 0 0 MbreakN           
M_VEDIC_4x4_1_ADDER_6x6_2_4x4_1_FA_1_HA1_M14         $D_HI
+  VEDIC_4x4_1_ADDER_6x6_2_4x4_1_FA_1_HA1_N11593
+  VEDIC_4x4_1_ADDER_6x6_2_4x4_1_FA_1_HA1_N09404 $D_HI MbreakP           
M_VEDIC_4x4_1_ADDER_6x6_2_4x4_1_FA_1_HA1_M17         $D_HI VEDIC_4x4_1_N02999
+  VEDIC_4x4_1_ADDER_6x6_2_4x4_1_FA_1_HA1_N11628 $D_HI MbreakP           
M_VEDIC_4x4_1_ADDER_6x6_2_4x4_1_FA_1_HA1_M9        
+  VEDIC_4x4_1_ADDER_6x6_2_4x4_1_FA_1_N00311 VEDIC_4x4_1_N02880
+  VEDIC_4x4_1_ADDER_6x6_2_4x4_1_FA_1_HA1_N09191 0 MbreakN           
M_VEDIC_4x4_1_ADDER_6x6_2_4x4_1_FA_1_HA1_M15         $D_HI
+  VEDIC_4x4_1_ADDER_6x6_2_4x4_1_FA_1_HA1_N11628
+  VEDIC_4x4_1_ADDER_6x6_2_4x4_1_FA_1_HA1_N09404 $D_HI MbreakP           
M_VEDIC_4x4_1_ADDER_6x6_2_4x4_1_FA_1_HA1_M18        
+  VEDIC_4x4_1_ADDER_6x6_2_4x4_1_FA_1_HA1_N11593 VEDIC_4x4_1_N02880 0 0 MbreakN  
+          
M_VEDIC_4x4_1_ADDER_6x6_2_4x4_1_FA_1_HA1_M10        
+  VEDIC_4x4_1_ADDER_6x6_2_4x4_1_FA_1_N00311
+  VEDIC_4x4_1_ADDER_6x6_2_4x4_1_FA_1_HA1_N11593
+  VEDIC_4x4_1_ADDER_6x6_2_4x4_1_FA_1_HA1_N09076 0 MbreakN           
M_VEDIC_4x4_1_ADDER_6x6_2_4x4_1_FA_1_HA1_M19        
+  VEDIC_4x4_1_ADDER_6x6_2_4x4_1_FA_1_HA1_N11628 VEDIC_4x4_1_N02999 0 0 MbreakN  
+          
M_VEDIC_4x4_1_ADDER_6x6_2_4x4_1_FA_1_M1        
+  VEDIC_4x4_1_ADDER_6x6_2_4x4_1_FA_1_N00946
+  VEDIC_4x4_1_ADDER_6x6_2_4x4_1_FA_1_N01184 0 0 MbreakN           
M_VEDIC_4x4_1_ADDER_6x6_2_4x4_1_FA_1_HA2_M11        
+  VEDIC_4x4_1_ADDER_6x6_2_4x4_1_FA_1_HA2_N09191
+  VEDIC_4x4_1_ADDER_6x6_2_4x4_1_FA_1_N00311 0 0 MbreakN           
M_VEDIC_4x4_1_ADDER_6x6_2_4x4_1_FA_1_HA2_M5         $D_HI
+  VEDIC_4x4_1_ADDER_6x6_2_4x4_1_FA_1_N00311
+  VEDIC_4x4_1_ADDER_6x6_2_4x4_1_FA_1_HA2_N06579 $D_HI MbreakP           
M_VEDIC_4x4_1_ADDER_6x6_2_4x4_1_FA_1_HA2_M2        
+  VEDIC_4x4_1_ADDER_6x6_2_4x4_1_FA_1_HA2_N06008
+  VEDIC_4x4_1_ADDER_6x6_2_4x4_1_FA_1_N00311 0 0 MbreakN           
M_VEDIC_4x4_1_ADDER_6x6_2_4x4_1_FA_1_HA2_M4         $D_HI
+  VEDIC_4x4_1_ADDER_6x6_2_4x4_1_N00531
+  VEDIC_4x4_1_ADDER_6x6_2_4x4_1_FA_1_HA2_N06579 $D_HI MbreakP           
M_VEDIC_4x4_1_ADDER_6x6_2_4x4_1_FA_1_HA2_M12        
+  VEDIC_4x4_1_ADDER_6x6_2_4x4_1_FA_1_HA2_N09404
+  VEDIC_4x4_1_ADDER_6x6_2_4x4_1_N00531 N14042 $D_HI MbreakP           
M_VEDIC_4x4_1_ADDER_6x6_2_4x4_1_FA_1_HA2_M1        
+  VEDIC_4x4_1_ADDER_6x6_2_4x4_1_FA_1_HA2_N06579
+  VEDIC_4x4_1_ADDER_6x6_2_4x4_1_N00531
+  VEDIC_4x4_1_ADDER_6x6_2_4x4_1_FA_1_HA2_N06008 0 MbreakN           
M_VEDIC_4x4_1_ADDER_6x6_2_4x4_1_FA_1_HA2_M6         $D_HI
+  VEDIC_4x4_1_ADDER_6x6_2_4x4_1_FA_1_HA2_N06579
+  VEDIC_4x4_1_ADDER_6x6_2_4x4_1_FA_1_N01242 $D_HI MbreakP           
M_VEDIC_4x4_1_ADDER_6x6_2_4x4_1_FA_1_HA2_M13        
+  VEDIC_4x4_1_ADDER_6x6_2_4x4_1_FA_1_HA2_N09404
+  VEDIC_4x4_1_ADDER_6x6_2_4x4_1_FA_1_N00311 N14042 $D_HI MbreakP           
M_VEDIC_4x4_1_ADDER_6x6_2_4x4_1_FA_1_HA2_M3        
+  VEDIC_4x4_1_ADDER_6x6_2_4x4_1_FA_1_N01242
+  VEDIC_4x4_1_ADDER_6x6_2_4x4_1_FA_1_HA2_N06579 0 0 MbreakN           
M_VEDIC_4x4_1_ADDER_6x6_2_4x4_1_FA_1_HA2_M16         $D_HI
+  VEDIC_4x4_1_ADDER_6x6_2_4x4_1_N00531
+  VEDIC_4x4_1_ADDER_6x6_2_4x4_1_FA_1_HA2_N11593 $D_HI MbreakP           
M_VEDIC_4x4_1_ADDER_6x6_2_4x4_1_FA_1_HA2_M8        
+  VEDIC_4x4_1_ADDER_6x6_2_4x4_1_FA_1_HA2_N09076
+  VEDIC_4x4_1_ADDER_6x6_2_4x4_1_FA_1_HA2_N11628 0 0 MbreakN           
M_VEDIC_4x4_1_ADDER_6x6_2_4x4_1_FA_1_HA2_M14         $D_HI
+  VEDIC_4x4_1_ADDER_6x6_2_4x4_1_FA_1_HA2_N11593
+  VEDIC_4x4_1_ADDER_6x6_2_4x4_1_FA_1_HA2_N09404 $D_HI MbreakP           
M_VEDIC_4x4_1_ADDER_6x6_2_4x4_1_FA_1_HA2_M17         $D_HI
+  VEDIC_4x4_1_ADDER_6x6_2_4x4_1_FA_1_N00311
+  VEDIC_4x4_1_ADDER_6x6_2_4x4_1_FA_1_HA2_N11628 $D_HI MbreakP           
M_VEDIC_4x4_1_ADDER_6x6_2_4x4_1_FA_1_HA2_M9         N14042
+  VEDIC_4x4_1_ADDER_6x6_2_4x4_1_N00531
+  VEDIC_4x4_1_ADDER_6x6_2_4x4_1_FA_1_HA2_N09191 0 MbreakN           
M_VEDIC_4x4_1_ADDER_6x6_2_4x4_1_FA_1_HA2_M15         $D_HI
+  VEDIC_4x4_1_ADDER_6x6_2_4x4_1_FA_1_HA2_N11628
+  VEDIC_4x4_1_ADDER_6x6_2_4x4_1_FA_1_HA2_N09404 $D_HI MbreakP           
M_VEDIC_4x4_1_ADDER_6x6_2_4x4_1_FA_1_HA2_M18        
+  VEDIC_4x4_1_ADDER_6x6_2_4x4_1_FA_1_HA2_N11593
+  VEDIC_4x4_1_ADDER_6x6_2_4x4_1_N00531 0 0 MbreakN           
M_VEDIC_4x4_1_ADDER_6x6_2_4x4_1_FA_1_HA2_M10         N14042
+  VEDIC_4x4_1_ADDER_6x6_2_4x4_1_FA_1_HA2_N11593
+  VEDIC_4x4_1_ADDER_6x6_2_4x4_1_FA_1_HA2_N09076 0 MbreakN           
M_VEDIC_4x4_1_ADDER_6x6_2_4x4_1_FA_1_HA2_M19        
+  VEDIC_4x4_1_ADDER_6x6_2_4x4_1_FA_1_HA2_N11628
+  VEDIC_4x4_1_ADDER_6x6_2_4x4_1_FA_1_N00311 0 0 MbreakN           
M_VEDIC_4x4_1_ADDER_6x6_2_4x4_1_FA_1_M3        
+  VEDIC_4x4_1_ADDER_6x6_2_4x4_1_FA_1_N01015
+  VEDIC_4x4_1_ADDER_6x6_2_4x4_1_FA_1_N01242
+  VEDIC_4x4_1_ADDER_6x6_2_4x4_1_FA_1_N00946 $D_HI MbreakP           
M_VEDIC_4x4_1_ADDER_6x6_2_4x4_1_FA_1_M2        
+  VEDIC_4x4_1_ADDER_6x6_2_4x4_1_FA_1_N00946
+  VEDIC_4x4_1_ADDER_6x6_2_4x4_1_FA_1_N01242 0 0 MbreakN           
M_VEDIC_4x4_1_ADDER_6x6_2_4x4_1_FA_1_M4         $D_HI
+  VEDIC_4x4_1_ADDER_6x6_2_4x4_1_FA_1_N01184
+  VEDIC_4x4_1_ADDER_6x6_2_4x4_1_FA_1_N01015 $D_HI MbreakP           
M_VEDIC_4x4_1_ADDER_6x6_2_4x4_1_FA_1_M5         $D_HI
+  VEDIC_4x4_1_ADDER_6x6_2_4x4_1_FA_1_N00946 VEDIC_4x4_1_ADDER_6x6_2_4x4_1_N00549
+  $D_HI MbreakP           
M_VEDIC_4x4_1_ADDER_6x6_2_4x4_1_FA_2_M6        
+  VEDIC_4x4_1_ADDER_6x6_2_4x4_1_N00567 VEDIC_4x4_1_ADDER_6x6_2_4x4_1_FA_2_N00946
+  0 0 MbreakN           
M_VEDIC_4x4_1_ADDER_6x6_2_4x4_1_FA_2_HA1_M11        
+  VEDIC_4x4_1_ADDER_6x6_2_4x4_1_FA_2_HA1_N09191 VEDIC_4x4_1_N03010 0 0 MbreakN  
+          
M_VEDIC_4x4_1_ADDER_6x6_2_4x4_1_FA_2_HA1_M5         $D_HI VEDIC_4x4_1_N03010
+  VEDIC_4x4_1_ADDER_6x6_2_4x4_1_FA_2_HA1_N06579 $D_HI MbreakP           
M_VEDIC_4x4_1_ADDER_6x6_2_4x4_1_FA_2_HA1_M2        
+  VEDIC_4x4_1_ADDER_6x6_2_4x4_1_FA_2_HA1_N06008 VEDIC_4x4_1_N03010 0 0 MbreakN  
+          
M_VEDIC_4x4_1_ADDER_6x6_2_4x4_1_FA_2_HA1_M4         $D_HI VEDIC_4x4_1_N02898
+  VEDIC_4x4_1_ADDER_6x6_2_4x4_1_FA_2_HA1_N06579 $D_HI MbreakP           
M_VEDIC_4x4_1_ADDER_6x6_2_4x4_1_FA_2_HA1_M12        
+  VEDIC_4x4_1_ADDER_6x6_2_4x4_1_FA_2_HA1_N09404 VEDIC_4x4_1_N02898
+  VEDIC_4x4_1_ADDER_6x6_2_4x4_1_FA_2_N00311 $D_HI MbreakP           
M_VEDIC_4x4_1_ADDER_6x6_2_4x4_1_FA_2_HA1_M1        
+  VEDIC_4x4_1_ADDER_6x6_2_4x4_1_FA_2_HA1_N06579 VEDIC_4x4_1_N02898
+  VEDIC_4x4_1_ADDER_6x6_2_4x4_1_FA_2_HA1_N06008 0 MbreakN           
M_VEDIC_4x4_1_ADDER_6x6_2_4x4_1_FA_2_HA1_M6         $D_HI
+  VEDIC_4x4_1_ADDER_6x6_2_4x4_1_FA_2_HA1_N06579
+  VEDIC_4x4_1_ADDER_6x6_2_4x4_1_FA_2_N01184 $D_HI MbreakP           
M_VEDIC_4x4_1_ADDER_6x6_2_4x4_1_FA_2_HA1_M13        
+  VEDIC_4x4_1_ADDER_6x6_2_4x4_1_FA_2_HA1_N09404 VEDIC_4x4_1_N03010
+  VEDIC_4x4_1_ADDER_6x6_2_4x4_1_FA_2_N00311 $D_HI MbreakP           
M_VEDIC_4x4_1_ADDER_6x6_2_4x4_1_FA_2_HA1_M3        
+  VEDIC_4x4_1_ADDER_6x6_2_4x4_1_FA_2_N01184
+  VEDIC_4x4_1_ADDER_6x6_2_4x4_1_FA_2_HA1_N06579 0 0 MbreakN           
M_VEDIC_4x4_1_ADDER_6x6_2_4x4_1_FA_2_HA1_M16         $D_HI VEDIC_4x4_1_N02898
+  VEDIC_4x4_1_ADDER_6x6_2_4x4_1_FA_2_HA1_N11593 $D_HI MbreakP           
M_VEDIC_4x4_1_ADDER_6x6_2_4x4_1_FA_2_HA1_M8        
[...]
+          
M_VEDIC_4x4_1_VEDIC_2x2_3_HA_2_M6         $D_HI
+  VEDIC_4x4_1_VEDIC_2x2_3_HA_2_N06579 VEDIC_4x4_1_N02025 $D_HI MbreakP          
+  
M_VEDIC_4x4_1_VEDIC_2x2_3_HA_2_M13         VEDIC_4x4_1_VEDIC_2x2_3_HA_2_N09404
+  VEDIC_4x4_1_VEDIC_2x2_3_N00417 VEDIC_4x4_1_N02007 $D_HI MbreakP           
M_VEDIC_4x4_1_VEDIC_2x2_3_HA_2_M3         VEDIC_4x4_1_N02025
+  VEDIC_4x4_1_VEDIC_2x2_3_HA_2_N06579 0 0 MbreakN           
M_VEDIC_4x4_1_VEDIC_2x2_3_HA_2_M16         $D_HI VEDIC_4x4_1_VEDIC_2x2_3_N00445
+  VEDIC_4x4_1_VEDIC_2x2_3_HA_2_N11593 $D_HI MbreakP           
M_VEDIC_4x4_1_VEDIC_2x2_3_HA_2_M8         VEDIC_4x4_1_VEDIC_2x2_3_HA_2_N09076
+  VEDIC_4x4_1_VEDIC_2x2_3_HA_2_N11628 0 0 MbreakN           
M_VEDIC_4x4_1_VEDIC_2x2_3_HA_2_M14         $D_HI
+  VEDIC_4x4_1_VEDIC_2x2_3_HA_2_N11593 VEDIC_4x4_1_VEDIC_2x2_3_HA_2_N09404 $D_HI
+  MbreakP           
M_VEDIC_4x4_1_VEDIC_2x2_3_HA_2_M17         $D_HI VEDIC_4x4_1_VEDIC_2x2_3_N00417
+  VEDIC_4x4_1_VEDIC_2x2_3_HA_2_N11628 $D_HI MbreakP           
M_VEDIC_4x4_1_VEDIC_2x2_3_HA_2_M9         VEDIC_4x4_1_N02007
+  VEDIC_4x4_1_VEDIC_2x2_3_N00445 VEDIC_4x4_1_VEDIC_2x2_3_HA_2_N09191 0 MbreakN  
+          
M_VEDIC_4x4_1_VEDIC_2x2_3_HA_2_M15         $D_HI
+  VEDIC_4x4_1_VEDIC_2x2_3_HA_2_N11628 VEDIC_4x4_1_VEDIC_2x2_3_HA_2_N09404 $D_HI
+  MbreakP           
M_VEDIC_4x4_1_VEDIC_2x2_3_HA_2_M18         VEDIC_4x4_1_VEDIC_2x2_3_HA_2_N11593
+  VEDIC_4x4_1_VEDIC_2x2_3_N00445 0 0 MbreakN           
M_VEDIC_4x4_1_VEDIC_2x2_3_HA_2_M10         VEDIC_4x4_1_N02007
+  VEDIC_4x4_1_VEDIC_2x2_3_HA_2_N11593 VEDIC_4x4_1_VEDIC_2x2_3_HA_2_N09076 0
+  MbreakN           
M_VEDIC_4x4_1_VEDIC_2x2_3_HA_2_M19         VEDIC_4x4_1_VEDIC_2x2_3_HA_2_N11628
+  VEDIC_4x4_1_VEDIC_2x2_3_N00417 0 0 MbreakN           
M_VEDIC_4x4_1_VEDIC_2x2_3_AND_4_M5         $D_HI $D_HI
+  VEDIC_4x4_1_VEDIC_2x2_3_AND_4_N06579 $D_HI MbreakP           
M_VEDIC_4x4_1_VEDIC_2x2_3_AND_4_M2         VEDIC_4x4_1_VEDIC_2x2_3_AND_4_N06008
+  $D_HI 0 0 MbreakN           
M_VEDIC_4x4_1_VEDIC_2x2_3_AND_4_M4         $D_HI $D_HI
+  VEDIC_4x4_1_VEDIC_2x2_3_AND_4_N06579 $D_HI MbreakP           
M_VEDIC_4x4_1_VEDIC_2x2_3_AND_4_M1         VEDIC_4x4_1_VEDIC_2x2_3_AND_4_N06579
+  $D_HI VEDIC_4x4_1_VEDIC_2x2_3_AND_4_N06008 0 MbreakN           
M_VEDIC_4x4_1_VEDIC_2x2_3_AND_4_M6         $D_HI
+  VEDIC_4x4_1_VEDIC_2x2_3_AND_4_N06579 VEDIC_4x4_1_VEDIC_2x2_3_N00417 $D_HI
+  MbreakP           
M_VEDIC_4x4_1_VEDIC_2x2_3_AND_4_M3         VEDIC_4x4_1_VEDIC_2x2_3_N00417
+  VEDIC_4x4_1_VEDIC_2x2_3_AND_4_N06579 0 0 MbreakN           
M_VEDIC_4x4_1_VEDIC_2x2_4_AND_1_M5         $D_HI VEDIC_4x4_1_VEDIC_2x2_4_B0
+  VEDIC_4x4_1_VEDIC_2x2_4_AND_1_N06579 $D_HI MbreakP           
M_VEDIC_4x4_1_VEDIC_2x2_4_AND_1_M2         VEDIC_4x4_1_VEDIC_2x2_4_AND_1_N06008
+  VEDIC_4x4_1_VEDIC_2x2_4_B0 0 0 MbreakN           
M_VEDIC_4x4_1_VEDIC_2x2_4_AND_1_M4         $D_HI VEDIC_4x4_1_VEDIC_2x2_4_A0
+  VEDIC_4x4_1_VEDIC_2x2_4_AND_1_N06579 $D_HI MbreakP           
M_VEDIC_4x4_1_VEDIC_2x2_4_AND_1_M1         VEDIC_4x4_1_VEDIC_2x2_4_AND_1_N06579
+  VEDIC_4x4_1_VEDIC_2x2_4_A0 VEDIC_4x4_1_VEDIC_2x2_4_AND_1_N06008 0 MbreakN     
+       
M_VEDIC_4x4_1_VEDIC_2x2_4_AND_1_M6         $D_HI
+  VEDIC_4x4_1_VEDIC_2x2_4_AND_1_N06579 VEDIC_4x4_1_N02552 $D_HI MbreakP         
+   
M_VEDIC_4x4_1_VEDIC_2x2_4_AND_1_M3         VEDIC_4x4_1_N02552
+  VEDIC_4x4_1_VEDIC_2x2_4_AND_1_N06579 0 0 MbreakN           
M_VEDIC_4x4_1_VEDIC_2x2_4_HA_1_M11         VEDIC_4x4_1_VEDIC_2x2_4_HA_1_N09191
+  VEDIC_4x4_1_VEDIC_2x2_4_N00381 0 0 MbreakN           
M_VEDIC_4x4_1_VEDIC_2x2_4_HA_1_M5         $D_HI VEDIC_4x4_1_VEDIC_2x2_4_N00381
+  VEDIC_4x4_1_VEDIC_2x2_4_HA_1_N06579 $D_HI MbreakP           
M_VEDIC_4x4_1_VEDIC_2x2_4_HA_1_M2         VEDIC_4x4_1_VEDIC_2x2_4_HA_1_N06008
+  VEDIC_4x4_1_VEDIC_2x2_4_N00381 0 0 MbreakN           
M_VEDIC_4x4_1_VEDIC_2x2_4_HA_1_M4         $D_HI VEDIC_4x4_1_VEDIC_2x2_4_N00370
+  VEDIC_4x4_1_VEDIC_2x2_4_HA_1_N06579 $D_HI MbreakP           
M_VEDIC_4x4_1_VEDIC_2x2_4_HA_1_M12         VEDIC_4x4_1_VEDIC_2x2_4_HA_1_N09404
+  VEDIC_4x4_1_VEDIC_2x2_4_N00370 VEDIC_4x4_1_N02374 $D_HI MbreakP           
M_VEDIC_4x4_1_VEDIC_2x2_4_HA_1_M1         VEDIC_4x4_1_VEDIC_2x2_4_HA_1_N06579
+  VEDIC_4x4_1_VEDIC_2x2_4_N00370 VEDIC_4x4_1_VEDIC_2x2_4_HA_1_N06008 0 MbreakN  
+          
M_VEDIC_4x4_1_VEDIC_2x2_4_HA_1_M6         $D_HI
+  VEDIC_4x4_1_VEDIC_2x2_4_HA_1_N06579 VEDIC_4x4_1_VEDIC_2x2_4_N00445 $D_HI
+  MbreakP           
M_VEDIC_4x4_1_VEDIC_2x2_4_HA_1_M13         VEDIC_4x4_1_VEDIC_2x2_4_HA_1_N09404
+  VEDIC_4x4_1_VEDIC_2x2_4_N00381 VEDIC_4x4_1_N02374 $D_HI MbreakP           
M_VEDIC_4x4_1_VEDIC_2x2_4_HA_1_M3         VEDIC_4x4_1_VEDIC_2x2_4_N00445
+  VEDIC_4x4_1_VEDIC_2x2_4_HA_1_N06579 0 0 MbreakN           
M_VEDIC_4x4_1_VEDIC_2x2_4_HA_1_M16         $D_HI VEDIC_4x4_1_VEDIC_2x2_4_N00370
+  VEDIC_4x4_1_VEDIC_2x2_4_HA_1_N11593 $D_HI MbreakP           
M_VEDIC_4x4_1_VEDIC_2x2_4_HA_1_M8         VEDIC_4x4_1_VEDIC_2x2_4_HA_1_N09076
+  VEDIC_4x4_1_VEDIC_2x2_4_HA_1_N11628 0 0 MbreakN           
M_VEDIC_4x4_1_VEDIC_2x2_4_HA_1_M14         $D_HI
+  VEDIC_4x4_1_VEDIC_2x2_4_HA_1_N11593 VEDIC_4x4_1_VEDIC_2x2_4_HA_1_N09404 $D_HI
+  MbreakP           
M_VEDIC_4x4_1_VEDIC_2x2_4_HA_1_M17         $D_HI VEDIC_4x4_1_VEDIC_2x2_4_N00381
+  VEDIC_4x4_1_VEDIC_2x2_4_HA_1_N11628 $D_HI MbreakP           
M_VEDIC_4x4_1_VEDIC_2x2_4_HA_1_M9         VEDIC_4x4_1_N02374
+  VEDIC_4x4_1_VEDIC_2x2_4_N00370 VEDIC_4x4_1_VEDIC_2x2_4_HA_1_N09191 0 MbreakN  
+          
M_VEDIC_4x4_1_VEDIC_2x2_4_HA_1_M15         $D_HI
+  VEDIC_4x4_1_VEDIC_2x2_4_HA_1_N11628 VEDIC_4x4_1_VEDIC_2x2_4_HA_1_N09404 $D_HI
+  MbreakP           
M_VEDIC_4x4_1_VEDIC_2x2_4_HA_1_M18         VEDIC_4x4_1_VEDIC_2x2_4_HA_1_N11593
+  VEDIC_4x4_1_VEDIC_2x2_4_N00370 0 0 MbreakN           
M_VEDIC_4x4_1_VEDIC_2x2_4_HA_1_M10         VEDIC_4x4_1_N02374
+  VEDIC_4x4_1_VEDIC_2x2_4_HA_1_N11593 VEDIC_4x4_1_VEDIC_2x2_4_HA_1_N09076 0
+  MbreakN           
M_VEDIC_4x4_1_VEDIC_2x2_4_HA_1_M19         VEDIC_4x4_1_VEDIC_2x2_4_HA_1_N11628
+  VEDIC_4x4_1_VEDIC_2x2_4_N00381 0 0 MbreakN           
M_VEDIC_4x4_1_VEDIC_2x2_4_AND_2_M5         $D_HI VEDIC_4x4_1_VEDIC_2x2_4_B0
+  VEDIC_4x4_1_VEDIC_2x2_4_AND_2_N06579 $D_HI MbreakP           
M_VEDIC_4x4_1_VEDIC_2x2_4_AND_2_M2         VEDIC_4x4_1_VEDIC_2x2_4_AND_2_N06008
+  VEDIC_4x4_1_VEDIC_2x2_4_B0 0 0 MbreakN           
M_VEDIC_4x4_1_VEDIC_2x2_4_AND_2_M4         $D_HI VEDIC_4x4_1_VEDIC_2x2_4_A1
+  VEDIC_4x4_1_VEDIC_2x2_4_AND_2_N06579 $D_HI MbreakP           
M_VEDIC_4x4_1_VEDIC_2x2_4_AND_2_M1         VEDIC_4x4_1_VEDIC_2x2_4_AND_2_N06579
+  VEDIC_4x4_1_VEDIC_2x2_4_A1 VEDIC_4x4_1_VEDIC_2x2_4_AND_2_N06008 0 MbreakN     
+       
M_VEDIC_4x4_1_VEDIC_2x2_4_AND_2_M6         $D_HI
+  VEDIC_4x4_1_VEDIC_2x2_4_AND_2_N06579 VEDIC_4x4_1_VEDIC_2x2_4_N00370 $D_HI
+  MbreakP           
M_VEDIC_4x4_1_VEDIC_2x2_4_AND_2_M3         VEDIC_4x4_1_VEDIC_2x2_4_N00370
+  VEDIC_4x4_1_VEDIC_2x2_4_AND_2_N06579 0 0 MbreakN           
M_VEDIC_4x4_1_VEDIC_2x2_4_AND_3_M5         $D_HI VEDIC_4x4_1_VEDIC_2x2_4_B1
+  VEDIC_4x4_1_VEDIC_2x2_4_AND_3_N06579 $D_HI MbreakP           
M_VEDIC_4x4_1_VEDIC_2x2_4_AND_3_M2         VEDIC_4x4_1_VEDIC_2x2_4_AND_3_N06008
+  VEDIC_4x4_1_VEDIC_2x2_4_B1 0 0 MbreakN           
M_VEDIC_4x4_1_VEDIC_2x2_4_AND_3_M4         $D_HI VEDIC_4x4_1_VEDIC_2x2_4_A0
+  VEDIC_4x4_1_VEDIC_2x2_4_AND_3_N06579 $D_HI MbreakP           
M_VEDIC_4x4_1_VEDIC_2x2_4_AND_3_M1         VEDIC_4x4_1_VEDIC_2x2_4_AND_3_N06579
+  VEDIC_4x4_1_VEDIC_2x2_4_A0 VEDIC_4x4_1_VEDIC_2x2_4_AND_3_N06008 0 MbreakN     
+       
M_VEDIC_4x4_1_VEDIC_2x2_4_AND_3_M6         $D_HI
+  VEDIC_4x4_1_VEDIC_2x2_4_AND_3_N06579 VEDIC_4x4_1_VEDIC_2x2_4_N00381 $D_HI
+  MbreakP           
M_VEDIC_4x4_1_VEDIC_2x2_4_AND_3_M3         VEDIC_4x4_1_VEDIC_2x2_4_N00381
+  VEDIC_4x4_1_VEDIC_2x2_4_AND_3_N06579 0 0 MbreakN           
M_VEDIC_4x4_1_VEDIC_2x2_4_HA_2_M11         VEDIC_4x4_1_VEDIC_2x2_4_HA_2_N09191
+  VEDIC_4x4_1_VEDIC_2x2_4_N00417 0 0 MbreakN           
M_VEDIC_4x4_1_VEDIC_2x2_4_HA_2_M5         $D_HI VEDIC_4x4_1_VEDIC_2x2_4_N00417
+  VEDIC_4x4_1_VEDIC_2x2_4_HA_2_N06579 $D_HI MbreakP           
M_VEDIC_4x4_1_VEDIC_2x2_4_HA_2_M2         VEDIC_4x4_1_VEDIC_2x2_4_HA_2_N06008
+  VEDIC_4x4_1_VEDIC_2x2_4_N00417 0 0 MbreakN           
M_VEDIC_4x4_1_VEDIC_2x2_4_HA_2_M4         $D_HI VEDIC_4x4_1_VEDIC_2x2_4_N00445
+  VEDIC_4x4_1_VEDIC_2x2_4_HA_2_N06579 $D_HI MbreakP           
M_VEDIC_4x4_1_VEDIC_2x2_4_HA_2_M12         VEDIC_4x4_1_VEDIC_2x2_4_HA_2_N09404
+  VEDIC_4x4_1_VEDIC_2x2_4_N00445 VEDIC_4x4_1_N02588 $D_HI MbreakP           
M_VEDIC_4x4_1_VEDIC_2x2_4_HA_2_M1         VEDIC_4x4_1_VEDIC_2x2_4_HA_2_N06579
+  VEDIC_4x4_1_VEDIC_2x2_4_N00445 VEDIC_4x4_1_VEDIC_2x2_4_HA_2_N06008 0 MbreakN  
+          
M_VEDIC_4x4_1_VEDIC_2x2_4_HA_2_M6         $D_HI
+  VEDIC_4x4_1_VEDIC_2x2_4_HA_2_N06579 VEDIC_4x4_1_N02608 $D_HI MbreakP          
+  
M_VEDIC_4x4_1_VEDIC_2x2_4_HA_2_M13         VEDIC_4x4_1_VEDIC_2x2_4_HA_2_N09404
+  VEDIC_4x4_1_VEDIC_2x2_4_N00417 VEDIC_4x4_1_N02588 $D_HI MbreakP           
M_VEDIC_4x4_1_VEDIC_2x2_4_HA_2_M3         VEDIC_4x4_1_N02608
+  VEDIC_4x4_1_VEDIC_2x2_4_HA_2_N06579 0 0 MbreakN           
M_VEDIC_4x4_1_VEDIC_2x2_4_HA_2_M16         $D_HI VEDIC_4x4_1_VEDIC_2x2_4_N00445
+  VEDIC_4x4_1_VEDIC_2x2_4_HA_2_N11593 $D_HI MbreakP           
M_VEDIC_4x4_1_VEDIC_2x2_4_HA_2_M8         VEDIC_4x4_1_VEDIC_2x2_4_HA_2_N09076
+  VEDIC_4x4_1_VEDIC_2x2_4_HA_2_N11628 0 0 MbreakN           
M_VEDIC_4x4_1_VEDIC_2x2_4_HA_2_M14         $D_HI
+  VEDIC_4x4_1_VEDIC_2x2_4_HA_2_N11593 VEDIC_4x4_1_VEDIC_2x2_4_HA_2_N09404 $D_HI
+  MbreakP           
M_VEDIC_4x4_1_VEDIC_2x2_4_HA_2_M17         $D_HI VEDIC_4x4_1_VEDIC_2x2_4_N00417
+  VEDIC_4x4_1_VEDIC_2x2_4_HA_2_N11628 $D_HI MbreakP           
M_VEDIC_4x4_1_VEDIC_2x2_4_HA_2_M9         VEDIC_4x4_1_N02588
+  VEDIC_4x4_1_VEDIC_2x2_4_N00445 VEDIC_4x4_1_VEDIC_2x2_4_HA_2_N09191 0 MbreakN  
+          
M_VEDIC_4x4_1_VEDIC_2x2_4_HA_2_M15         $D_HI
+  VEDIC_4x4_1_VEDIC_2x2_4_HA_2_N11628 VEDIC_4x4_1_VEDIC_2x2_4_HA_2_N09404 $D_HI
+  MbreakP           
M_VEDIC_4x4_1_VEDIC_2x2_4_HA_2_M18         VEDIC_4x4_1_VEDIC_2x2_4_HA_2_N11593
+  VEDIC_4x4_1_VEDIC_2x2_4_N00445 0 0 MbreakN           
M_VEDIC_4x4_1_VEDIC_2x2_4_HA_2_M10         VEDIC_4x4_1_N02588
+  VEDIC_4x4_1_VEDIC_2x2_4_HA_2_N11593 VEDIC_4x4_1_VEDIC_2x2_4_HA_2_N09076 0
+  MbreakN           
M_VEDIC_4x4_1_VEDIC_2x2_4_HA_2_M19         VEDIC_4x4_1_VEDIC_2x2_4_HA_2_N11628
+  VEDIC_4x4_1_VEDIC_2x2_4_N00417 0 0 MbreakN           
M_VEDIC_4x4_1_VEDIC_2x2_4_AND_4_M5         $D_HI VEDIC_4x4_1_VEDIC_2x2_4_B1
+  VEDIC_4x4_1_VEDIC_2x2_4_AND_4_N06579 $D_HI MbreakP           
M_VEDIC_4x4_1_VEDIC_2x2_4_AND_4_M2         VEDIC_4x4_1_VEDIC_2x2_4_AND_4_N06008
+  VEDIC_4x4_1_VEDIC_2x2_4_B1 0 0 MbreakN           
M_VEDIC_4x4_1_VEDIC_2x2_4_AND_4_M4         $D_HI VEDIC_4x4_1_VEDIC_2x2_4_A1
+  VEDIC_4x4_1_VEDIC_2x2_4_AND_4_N06579 $D_HI MbreakP           
M_VEDIC_4x4_1_VEDIC_2x2_4_AND_4_M1         VEDIC_4x4_1_VEDIC_2x2_4_AND_4_N06579
+  VEDIC_4x4_1_VEDIC_2x2_4_A1 VEDIC_4x4_1_VEDIC_2x2_4_AND_4_N06008 0 MbreakN     
+       
M_VEDIC_4x4_1_VEDIC_2x2_4_AND_4_M6         $D_HI
+  VEDIC_4x4_1_VEDIC_2x2_4_AND_4_N06579 VEDIC_4x4_1_VEDIC_2x2_4_N00417 $D_HI
+  MbreakP           
M_VEDIC_4x4_1_VEDIC_2x2_4_AND_4_M3         VEDIC_4x4_1_VEDIC_2x2_4_N00417
+  VEDIC_4x4_1_VEDIC_2x2_4_AND_4_N06579 0 0 MbreakN           
M_VEDIC_4x4_1_VEDIC_2x2_2_AND_1_M5         $D_HI $D_HI
+  VEDIC_4x4_1_VEDIC_2x2_2_AND_1_N06579 $D_HI MbreakP           
M_VEDIC_4x4_1_VEDIC_2x2_2_AND_1_M2         VEDIC_4x4_1_VEDIC_2x2_2_AND_1_N06008
+  $D_HI 0 0 MbreakN           
M_VEDIC_4x4_1_VEDIC_2x2_2_AND_1_M4         $D_HI $D_HI
+  VEDIC_4x4_1_VEDIC_2x2_2_AND_1_N06579 $D_HI MbreakP           
M_VEDIC_4x4_1_VEDIC_2x2_2_AND_1_M1         VEDIC_4x4_1_VEDIC_2x2_2_AND_1_N06579
+  $D_HI VEDIC_4x4_1_VEDIC_2x2_2_AND_1_N06008 0 MbreakN           
M_VEDIC_4x4_1_VEDIC_2x2_2_AND_1_M6         $D_HI
+  VEDIC_4x4_1_VEDIC_2x2_2_AND_1_N06579 VEDIC_4x4_1_N00770 $D_HI MbreakP         
+   
M_VEDIC_4x4_1_VEDIC_2x2_2_AND_1_M3         VEDIC_4x4_1_N00770
+  VEDIC_4x4_1_VEDIC_2x2_2_AND_1_N06579 0 0 MbreakN           
M_VEDIC_4x4_1_VEDIC_2x2_2_HA_1_M11         VEDIC_4x4_1_VEDIC_2x2_2_HA_1_N09191
+  VEDIC_4x4_1_VEDIC_2x2_2_N00381 0 0 MbreakN           
M_VEDIC_4x4_1_VEDIC_2x2_2_HA_1_M5         $D_HI VEDIC_4x4_1_VEDIC_2x2_2_N00381
+  VEDIC_4x4_1_VEDIC_2x2_2_HA_1_N06579 $D_HI MbreakP           
M_VEDIC_4x4_1_VEDIC_2x2_2_HA_1_M2         VEDIC_4x4_1_VEDIC_2x2_2_HA_1_N06008
+  VEDIC_4x4_1_VEDIC_2x2_2_N00381 0 0 MbreakN           
M_VEDIC_4x4_1_VEDIC_2x2_2_HA_1_M4         $D_HI VEDIC_4x4_1_VEDIC_2x2_2_N00370
+  VEDIC_4x4_1_VEDIC_2x2_2_HA_1_N06579 $D_HI MbreakP           
M_VEDIC_4x4_1_VEDIC_2x2_2_HA_1_M12         VEDIC_4x4_1_VEDIC_2x2_2_HA_1_N09404
+  VEDIC_4x4_1_VEDIC_2x2_2_N00370 VEDIC_4x4_1_N00781 $D_HI MbreakP           
M_VEDIC_4x4_1_VEDIC_2x2_2_HA_1_M1         VEDIC_4x4_1_VEDIC_2x2_2_HA_1_N06579
+  VEDIC_4x4_1_VEDIC_2x2_2_N00370 VEDIC_4x4_1_VEDIC_2x2_2_HA_1_N06008 0 MbreakN  
+          
M_VEDIC_4x4_1_VEDIC_2x2_2_HA_1_M6         $D_HI
+  VEDIC_4x4_1_VEDIC_2x2_2_HA_1_N06579 VEDIC_4x4_1_VEDIC_2x2_2_N00445 $D_HI
+  MbreakP           
M_VEDIC_4x4_1_VEDIC_2x2_2_HA_1_M13         VEDIC_4x4_1_VEDIC_2x2_2_HA_1_N09404
+  VEDIC_4x4_1_VEDIC_2x2_2_N00381 VEDIC_4x4_1_N00781 $D_HI MbreakP           
M_VEDIC_4x4_1_VEDIC_2x2_2_HA_1_M3         VEDIC_4x4_1_VEDIC_2x2_2_N00445
+  VEDIC_4x4_1_VEDIC_2x2_2_HA_1_N06579 0 0 MbreakN           
M_VEDIC_4x4_1_VEDIC_2x2_2_HA_1_M16         $D_HI VEDIC_4x4_1_VEDIC_2x2_2_N00370
+  VEDIC_4x4_1_VEDIC_2x2_2_HA_1_N11593 $D_HI MbreakP           
M_VEDIC_4x4_1_VEDIC_2x2_2_HA_1_M8         VEDIC_4x4_1_VEDIC_2x2_2_HA_1_N09076
+  VEDIC_4x4_1_VEDIC_2x2_2_HA_1_N11628 0 0 MbreakN           
M_VEDIC_4x4_1_VEDIC_2x2_2_HA_1_M14         $D_HI
+  VEDIC_4x4_1_VEDIC_2x2_2_HA_1_N11593 VEDIC_4x4_1_VEDIC_2x2_2_HA_1_N09404 $D_HI
+  MbreakP           
M_VEDIC_4x4_1_VEDIC_2x2_2_HA_1_M17         $D_HI VEDIC_4x4_1_VEDIC_2x2_2_N00381
+  VEDIC_4x4_1_VEDIC_2x2_2_HA_1_N11628 $D_HI MbreakP           
M_VEDIC_4x4_1_VEDIC_2x2_2_HA_1_M9         VEDIC_4x4_1_N00781
+  VEDIC_4x4_1_VEDIC_2x2_2_N00370 VEDIC_4x4_1_VEDIC_2x2_2_HA_1_N09191 0 MbreakN  
+          
M_VEDIC_4x4_1_VEDIC_2x2_2_HA_1_M15         $D_HI
+  VEDIC_4x4_1_VEDIC_2x2_2_HA_1_N11628 VEDIC_4x4_1_VEDIC_2x2_2_HA_1_N09404 $D_HI
+  MbreakP           
M_VEDIC_4x4_1_VEDIC_2x2_2_HA_1_M18         VEDIC_4x4_1_VEDIC_2x2_2_HA_1_N11593
+  VEDIC_4x4_1_VEDIC_2x2_2_N00370 0 0 MbreakN           
M_VEDIC_4x4_1_VEDIC_2x2_2_HA_1_M10         VEDIC_4x4_1_N00781
+  VEDIC_4x4_1_VEDIC_2x2_2_HA_1_N11593 VEDIC_4x4_1_VEDIC_2x2_2_HA_1_N09076 0
+  MbreakN           
M_VEDIC_4x4_1_VEDIC_2x2_2_HA_1_M19         VEDIC_4x4_1_VEDIC_2x2_2_HA_1_N11628
+  VEDIC_4x4_1_VEDIC_2x2_2_N00381 0 0 MbreakN           
M_VEDIC_4x4_1_VEDIC_2x2_2_AND_2_M5         $D_HI $D_HI
+  VEDIC_4x4_1_VEDIC_2x2_2_AND_2_N06579 $D_HI MbreakP           
M_VEDIC_4x4_1_VEDIC_2x2_2_AND_2_M2         VEDIC_4x4_1_VEDIC_2x2_2_AND_2_N06008
+  $D_HI 0 0 MbreakN           
M_VEDIC_4x4_1_VEDIC_2x2_2_AND_2_M4         $D_HI $D_HI
+  VEDIC_4x4_1_VEDIC_2x2_2_AND_2_N06579 $D_HI MbreakP           
M_VEDIC_4x4_1_VEDIC_2x2_2_AND_2_M1         VEDIC_4x4_1_VEDIC_2x2_2_AND_2_N06579
+  $D_HI VEDIC_4x4_1_VEDIC_2x2_2_AND_2_N06008 0 MbreakN           
M_VEDIC_4x4_1_VEDIC_2x2_2_AND_2_M6         $D_HI
+  VEDIC_4x4_1_VEDIC_2x2_2_AND_2_N06579 VEDIC_4x4_1_VEDIC_2x2_2_N00370 $D_HI
+  MbreakP           
M_VEDIC_4x4_1_VEDIC_2x2_2_AND_2_M3         VEDIC_4x4_1_VEDIC_2x2_2_N00370
+  VEDIC_4x4_1_VEDIC_2x2_2_AND_2_N06579 0 0 MbreakN           
M_VEDIC_4x4_1_VEDIC_2x2_2_AND_3_M5         $D_HI $D_HI
+  VEDIC_4x4_1_VEDIC_2x2_2_AND_3_N06579 $D_HI MbreakP           
M_VEDIC_4x4_1_VEDIC_2x2_2_AND_3_M2         VEDIC_4x4_1_VEDIC_2x2_2_AND_3_N06008
+  $D_HI 0 0 MbreakN           
M_VEDIC_4x4_1_VEDIC_2x2_2_AND_3_M4         $D_HI $D_HI
+  VEDIC_4x4_1_VEDIC_2x2_2_AND_3_N06579 $D_HI MbreakP           
M_VEDIC_4x4_1_VEDIC_2x2_2_AND_3_M1         VEDIC_4x4_1_VEDIC_2x2_2_AND_3_N06579
+  $D_HI VEDIC_4x4_1_VEDIC_2x2_2_AND_3_N06008 0 MbreakN           
M_VEDIC_4x4_1_VEDIC_2x2_2_AND_3_M6         $D_HI
+  VEDIC_4x4_1_VEDIC_2x2_2_AND_3_N06579 VEDIC_4x4_1_VEDIC_2x2_2_N00381 $D_HI
+  MbreakP           
M_VEDIC_4x4_1_VEDIC_2x2_2_AND_3_M3         VEDIC_4x4_1_VEDIC_2x2_2_N00381
+  VEDIC_4x4_1_VEDIC_2x2_2_AND_3_N06579 0 0 MbreakN           
M_VEDIC_4x4_1_VEDIC_2x2_2_HA_2_M11         VEDIC_4x4_1_VEDIC_2x2_2_HA_2_N09191
+  VEDIC_4x4_1_VEDIC_2x2_2_N00417 0 0 MbreakN           
M_VEDIC_4x4_1_VEDIC_2x2_2_HA_2_M5         $D_HI VEDIC_4x4_1_VEDIC_2x2_2_N00417
+  VEDIC_4x4_1_VEDIC_2x2_2_HA_2_N06579 $D_HI MbreakP           
M_VEDIC_4x4_1_VEDIC_2x2_2_HA_2_M2         VEDIC_4x4_1_VEDIC_2x2_2_HA_2_N06008
+  VEDIC_4x4_1_VEDIC_2x2_2_N00417 0 0 MbreakN           
M_VEDIC_4x4_1_VEDIC_2x2_2_HA_2_M4         $D_HI VEDIC_4x4_1_VEDIC_2x2_2_N00445
+  VEDIC_4x4_1_VEDIC_2x2_2_HA_2_N06579 $D_HI MbreakP           
M_VEDIC_4x4_1_VEDIC_2x2_2_HA_2_M12         VEDIC_4x4_1_VEDIC_2x2_2_HA_2_N09404
+  VEDIC_4x4_1_VEDIC_2x2_2_N00445 VEDIC_4x4_1_N00799 $D_HI MbreakP           
M_VEDIC_4x4_1_VEDIC_2x2_2_HA_2_M1         VEDIC_4x4_1_VEDIC_2x2_2_HA_2_N06579
+  VEDIC_4x4_1_VEDIC_2x2_2_N00445 VEDIC_4x4_1_VEDIC_2x2_2_HA_2_N06008 0 MbreakN  
+          
M_VEDIC_4x4_1_VEDIC_2x2_2_HA_2_M6         $D_HI
+  VEDIC_4x4_1_VEDIC_2x2_2_HA_2_N06579 VEDIC_4x4_1_N00828 $D_HI MbreakP          
+  
M_VEDIC_4x4_1_VEDIC_2x2_2_HA_2_M13         VEDIC_4x4_1_VEDIC_2x2_2_HA_2_N09404
+  VEDIC_4x4_1_VEDIC_2x2_2_N00417 VEDIC_4x4_1_N00799 $D_HI MbreakP           
M_VEDIC_4x4_1_VEDIC_2x2_2_HA_2_M3         VEDIC_4x4_1_N00828
+  VEDIC_4x4_1_VEDIC_2x2_2_HA_2_N06579 0 0 MbreakN           
M_VEDIC_4x4_1_VEDIC_2x2_2_HA_2_M16         $D_HI VEDIC_4x4_1_VEDIC_2x2_2_N00445
+  VEDIC_4x4_1_VEDIC_2x2_2_HA_2_N11593 $D_HI MbreakP           
M_VEDIC_4x4_1_VEDIC_2x2_2_HA_2_M8         VEDIC_4x4_1_VEDIC_2x2_2_HA_2_N09076
+  VEDIC_4x4_1_VEDIC_2x2_2_HA_2_N11628 0 0 MbreakN           
M_VEDIC_4x4_1_VEDIC_2x2_2_HA_2_M14         $D_HI
+  VEDIC_4x4_1_VEDIC_2x2_2_HA_2_N11593 VEDIC_4x4_1_VEDIC_2x2_2_HA_2_N09404 $D_HI
+  MbreakP           
M_VEDIC_4x4_1_VEDIC_2x2_2_HA_2_M17         $D_HI VEDIC_4x4_1_VEDIC_2x2_2_N00417
+  VEDIC_4x4_1_VEDIC_2x2_2_HA_2_N11628 $D_HI MbreakP           
M_VEDIC_4x4_1_VEDIC_2x2_2_HA_2_M9         VEDIC_4x4_1_N00799
+  VEDIC_4x4_1_VEDIC_2x2_2_N00445 VEDIC_4x4_1_VEDIC_2x2_2_HA_2_N09191 0 MbreakN  
+          
M_VEDIC_4x4_1_VEDIC_2x2_2_HA_2_M15         $D_HI
+  VEDIC_4x4_1_VEDIC_2x2_2_HA_2_N11628 VEDIC_4x4_1_VEDIC_2x2_2_HA_2_N09404 $D_HI
+  MbreakP           
M_VEDIC_4x4_1_VEDIC_2x2_2_HA_2_M18         VEDIC_4x4_1_VEDIC_2x2_2_HA_2_N11593
+  VEDIC_4x4_1_VEDIC_2x2_2_N00445 0 0 MbreakN           
M_VEDIC_4x4_1_VEDIC_2x2_2_HA_2_M10         VEDIC_4x4_1_N00799
+  VEDIC_4x4_1_VEDIC_2x2_2_HA_2_N11593 VEDIC_4x4_1_VEDIC_2x2_2_HA_2_N09076 0
+  MbreakN           
M_VEDIC_4x4_1_VEDIC_2x2_2_HA_2_M19         VEDIC_4x4_1_VEDIC_2x2_2_HA_2_N11628
+  VEDIC_4x4_1_VEDIC_2x2_2_N00417 0 0 MbreakN           
M_VEDIC_4x4_1_VEDIC_2x2_2_AND_4_M5         $D_HI $D_HI
+  VEDIC_4x4_1_VEDIC_2x2_2_AND_4_N06579 $D_HI MbreakP           
M_VEDIC_4x4_1_VEDIC_2x2_2_AND_4_M2         VEDIC_4x4_1_VEDIC_2x2_2_AND_4_N06008
+  $D_HI 0 0 MbreakN           
M_VEDIC_4x4_1_VEDIC_2x2_2_AND_4_M4         $D_HI $D_HI
+  VEDIC_4x4_1_VEDIC_2x2_2_AND_4_N06579 $D_HI MbreakP           
M_VEDIC_4x4_1_VEDIC_2x2_2_AND_4_M1         VEDIC_4x4_1_VEDIC_2x2_2_AND_4_N06579
+  $D_HI VEDIC_4x4_1_VEDIC_2x2_2_AND_4_N06008 0 MbreakN           
M_VEDIC_4x4_1_VEDIC_2x2_2_AND_4_M6         $D_HI
+  VEDIC_4x4_1_VEDIC_2x2_2_AND_4_N06579 VEDIC_4x4_1_VEDIC_2x2_2_N00417 $D_HI
+  MbreakP           
M_VEDIC_4x4_1_VEDIC_2x2_2_AND_4_M3         VEDIC_4x4_1_VEDIC_2x2_2_N00417
+  VEDIC_4x4_1_VEDIC_2x2_2_AND_4_N06579 0 0 MbreakN           
V_V3         $D_HI 0 5Vdc

**** RESUMING vlsi-MAIN-test2.sim.cir ****
.END

ERROR -- Node VEDIC_4x4_1_VEDIC_2x2_4_B0 is floating
ERROR -- Node VEDIC_4x4_1_VEDIC_2x2_4_A0 is floating
ERROR -- Node VEDIC_4x4_1_VEDIC_2x2_4_A1 is floating
ERROR -- Node VEDIC_4x4_1_VEDIC_2x2_4_B1 is floating