
**** 11/25/20 11:28:00 ********* PSpice 9.2 (Mar 2000) ******** ID# 1 ********

 ** Profile: "MAIN8-test5"  [ C:\Users\Karan\Documents\PSpice\VLSI\vlsi-MAIN8-test5.sim ] 


 ****     CIRCUIT DESCRIPTION


******************************************************************************




** Creating circuit file "vlsi-MAIN8-test5.sim.cir" 
** WARNING: THIS AUTOMATICALLY GENERATED FILE MAY BE OVERWRITTEN BY SUBSEQUENT SIMULATIONS

*Libraries: 
* Local Libraries :
.STMLIB ".\VLSI.stl" 
* From [PSPICE NETLIST] section of C:\Program Files\Orcad 9.1\PSpice\PSpice.ini file:
.lib "nom.lib" 

*Analysis directives: 
.TRAN  0 100ms 0 
.PROBE V(*) I(*) W(*) D(*) NOISE(*) 
.INC ".\vlsi-MAIN8.net" 



**** INCLUDING vlsi-MAIN8.net ****
* source VLSI
V_v2         N21832 0  
+PULSE 0 5 0 1u 1u 10ms 20ms
X_BUFFER_1_U1         Q0 N26699 $G_DPWR $G_DGND BUF
X_BUFFER_1_U2         Q1 N26706 $G_DPWR $G_DGND BUF
X_BUFFER_1_U3         Q2 N26713 $G_DPWR $G_DGND BUF
X_BUFFER_1_U4         Q3 N26720 $G_DPWR $G_DGND BUF
X_BUFFER_1_U5         Q4 N26727 $G_DPWR $G_DGND BUF
X_BUFFER_1_U6         Q5 N26734 $G_DPWR $G_DGND BUF
X_BUFFER_1_U7         Q6 N26744 $G_DPWR $G_DGND BUF
X_BUFFER_1_U8         Q7 N26751 $G_DPWR $G_DGND BUF
X_BUFFER4_2_U2         N21875 N24516 $G_DPWR $G_DGND BUF
X_BUFFER4_2_U3         N21875 N24523 $G_DPWR $G_DGND BUF
X_BUFFER4_2_U4         N21832 N24530 $G_DPWR $G_DGND BUF
X_BUFFER4_2_U1         N22202 N24509 $G_DPWR $G_DGND BUF
V_v3         N22202 0  
+PULSE 0 5 0 1u 1u 20ms 40ms
X_BUFFER4_1_U2         N21875 N24463 $G_DPWR $G_DGND BUF
X_BUFFER4_1_U3         N22202 N24470 $G_DPWR $G_DGND BUF
X_BUFFER4_1_U4         N21875 N24477 $G_DPWR $G_DGND BUF
X_BUFFER4_1_U1         N21832 N24456 $G_DPWR $G_DGND BUF
M_VEDIC_4x4_1_VEDIC_2x2_1_AND_1_M5         $D_HI N22202
+  VEDIC_4x4_1_VEDIC_2x2_1_AND_1_N06579 $D_HI MbreakP           
M_VEDIC_4x4_1_VEDIC_2x2_1_AND_1_M2         VEDIC_4x4_1_VEDIC_2x2_1_AND_1_N06008
+  N22202 0 0 MbreakN           
M_VEDIC_4x4_1_VEDIC_2x2_1_AND_1_M4         $D_HI N21832
+  VEDIC_4x4_1_VEDIC_2x2_1_AND_1_N06579 $D_HI MbreakP           
M_VEDIC_4x4_1_VEDIC_2x2_1_AND_1_M1         VEDIC_4x4_1_VEDIC_2x2_1_AND_1_N06579
+  N21832 VEDIC_4x4_1_VEDIC_2x2_1_AND_1_N06008 0 MbreakN           
M_VEDIC_4x4_1_VEDIC_2x2_1_AND_1_M6         $D_HI
+  VEDIC_4x4_1_VEDIC_2x2_1_AND_1_N06579 Q0 $D_HI MbreakP           
M_VEDIC_4x4_1_VEDIC_2x2_1_AND_1_M3         Q0
+  VEDIC_4x4_1_VEDIC_2x2_1_AND_1_N06579 0 0 MbreakN           
M_VEDIC_4x4_1_VEDIC_2x2_1_HA_1_M11         VEDIC_4x4_1_VEDIC_2x2_1_HA_1_N09191
+  VEDIC_4x4_1_VEDIC_2x2_1_N00381 0 0 MbreakN           
M_VEDIC_4x4_1_VEDIC_2x2_1_HA_1_M5         $D_HI VEDIC_4x4_1_VEDIC_2x2_1_N00381
+  VEDIC_4x4_1_VEDIC_2x2_1_HA_1_N06579 $D_HI MbreakP           
M_VEDIC_4x4_1_VEDIC_2x2_1_HA_1_M2         VEDIC_4x4_1_VEDIC_2x2_1_HA_1_N06008
+  VEDIC_4x4_1_VEDIC_2x2_1_N00381 0 0 MbreakN           
M_VEDIC_4x4_1_VEDIC_2x2_1_HA_1_M4         $D_HI VEDIC_4x4_1_VEDIC_2x2_1_N00370
+  VEDIC_4x4_1_VEDIC_2x2_1_HA_1_N06579 $D_HI MbreakP           
M_VEDIC_4x4_1_VEDIC_2x2_1_HA_1_M12         VEDIC_4x4_1_VEDIC_2x2_1_HA_1_N09404
+  VEDIC_4x4_1_VEDIC_2x2_1_N00370 Q1 $D_HI MbreakP           
M_VEDIC_4x4_1_VEDIC_2x2_1_HA_1_M1         VEDIC_4x4_1_VEDIC_2x2_1_HA_1_N06579
+  VEDIC_4x4_1_VEDIC_2x2_1_N00370 VEDIC_4x4_1_VEDIC_2x2_1_HA_1_N06008 0 MbreakN  
+          
M_VEDIC_4x4_1_VEDIC_2x2_1_HA_1_M6         $D_HI
+  VEDIC_4x4_1_VEDIC_2x2_1_HA_1_N06579 VEDIC_4x4_1_VEDIC_2x2_1_N00445 $D_HI
+  MbreakP           
M_VEDIC_4x4_1_VEDIC_2x2_1_HA_1_M13         VEDIC_4x4_1_VEDIC_2x2_1_HA_1_N09404
+  VEDIC_4x4_1_VEDIC_2x2_1_N00381 Q1 $D_HI MbreakP           
M_VEDIC_4x4_1_VEDIC_2x2_1_HA_1_M3         VEDIC_4x4_1_VEDIC_2x2_1_N00445
+  VEDIC_4x4_1_VEDIC_2x2_1_HA_1_N06579 0 0 MbreakN           
M_VEDIC_4x4_1_VEDIC_2x2_1_HA_1_M16         $D_HI VEDIC_4x4_1_VEDIC_2x2_1_N00370
+  VEDIC_4x4_1_VEDIC_2x2_1_HA_1_N11593 $D_HI MbreakP           
M_VEDIC_4x4_1_VEDIC_2x2_1_HA_1_M8         VEDIC_4x4_1_VEDIC_2x2_1_HA_1_N09076
+  VEDIC_4x4_1_VEDIC_2x2_1_HA_1_N11628 0 0 MbreakN           
M_VEDIC_4x4_1_VEDIC_2x2_1_HA_1_M14         $D_HI
+  VEDIC_4x4_1_VEDIC_2x2_1_HA_1_N11593 VEDIC_4x4_1_VEDIC_2x2_1_HA_1_N09404 $D_HI
+  MbreakP           
M_VEDIC_4x4_1_VEDIC_2x2_1_HA_1_M17         $D_HI VEDIC_4x4_1_VEDIC_2x2_1_N00381
+  VEDIC_4x4_1_VEDIC_2x2_1_HA_1_N11628 $D_HI MbreakP           
M_VEDIC_4x4_1_VEDIC_2x2_1_HA_1_M9         Q1 VEDIC_4x4_1_VEDIC_2x2_1_N00370
+  VEDIC_4x4_1_VEDIC_2x2_1_HA_1_N09191 0 MbreakN           
M_VEDIC_4x4_1_VEDIC_2x2_1_HA_1_M15         $D_HI
+  VEDIC_4x4_1_VEDIC_2x2_1_HA_1_N11628 VEDIC_4x4_1_VEDIC_2x2_1_HA_1_N09404 $D_HI
+  MbreakP           
M_VEDIC_4x4_1_VEDIC_2x2_1_HA_1_M18         VEDIC_4x4_1_VEDIC_2x2_1_HA_1_N11593
+  VEDIC_4x4_1_VEDIC_2x2_1_N00370 0 0 MbreakN           
M_VEDIC_4x4_1_VEDIC_2x2_1_HA_1_M10         Q1
+  VEDIC_4x4_1_VEDIC_2x2_1_HA_1_N11593 VEDIC_4x4_1_VEDIC_2x2_1_HA_1_N09076 0
+  MbreakN           
M_VEDIC_4x4_1_VEDIC_2x2_1_HA_1_M19         VEDIC_4x4_1_VEDIC_2x2_1_HA_1_N11628
+  VEDIC_4x4_1_VEDIC_2x2_1_N00381 0 0 MbreakN           
M_VEDIC_4x4_1_VEDIC_2x2_1_AND_2_M5         $D_HI N22202
+  VEDIC_4x4_1_VEDIC_2x2_1_AND_2_N06579 $D_HI MbreakP           
M_VEDIC_4x4_1_VEDIC_2x2_1_AND_2_M2         VEDIC_4x4_1_VEDIC_2x2_1_AND_2_N06008
+  N22202 0 0 MbreakN           
M_VEDIC_4x4_1_VEDIC_2x2_1_AND_2_M4         $D_HI N21875
+  VEDIC_4x4_1_VEDIC_2x2_1_AND_2_N06579 $D_HI MbreakP           
M_VEDIC_4x4_1_VEDIC_2x2_1_AND_2_M1         VEDIC_4x4_1_VEDIC_2x2_1_AND_2_N06579
+  N21875 VEDIC_4x4_1_VEDIC_2x2_1_AND_2_N06008 0 MbreakN           
M_VEDIC_4x4_1_VEDIC_2x2_1_AND_2_M6         $D_HI
+  VEDIC_4x4_1_VEDIC_2x2_1_AND_2_N06579 VEDIC_4x4_1_VEDIC_2x2_1_N00370 $D_HI
+  MbreakP           
M_VEDIC_4x4_1_VEDIC_2x2_1_AND_2_M3         VEDIC_4x4_1_VEDIC_2x2_1_N00370
+  VEDIC_4x4_1_VEDIC_2x2_1_AND_2_N06579 0 0 MbreakN           
M_VEDIC_4x4_1_VEDIC_2x2_1_AND_3_M5         $D_HI N21875
+  VEDIC_4x4_1_VEDIC_2x2_1_AND_3_N06579 $D_HI MbreakP           
M_VEDIC_4x4_1_VEDIC_2x2_1_AND_3_M2         VEDIC_4x4_1_VEDIC_2x2_1_AND_3_N06008
+  N21875 0 0 MbreakN           
M_VEDIC_4x4_1_VEDIC_2x2_1_AND_3_M4         $D_HI N21832
+  VEDIC_4x4_1_VEDIC_2x2_1_AND_3_N06579 $D_HI MbreakP           
M_VEDIC_4x4_1_VEDIC_2x2_1_AND_3_M1         VEDIC_4x4_1_VEDIC_2x2_1_AND_3_N06579
+  N21832 VEDIC_4x4_1_VEDIC_2x2_1_AND_3_N06008 0 MbreakN           
M_VEDIC_4x4_1_VEDIC_2x2_1_AND_3_M6         $D_HI
+  VEDIC_4x4_1_VEDIC_2x2_1_AND_3_N06579 VEDIC_4x4_1_VEDIC_2x2_1_N00381 $D_HI
+  MbreakP           
M_VEDIC_4x4_1_VEDIC_2x2_1_AND_3_M3         VEDIC_4x4_1_VEDIC_2x2_1_N00381
+  VEDIC_4x4_1_VEDIC_2x2_1_AND_3_N06579 0 0 MbreakN           
M_VEDIC_4x4_1_VEDIC_2x2_1_HA_2_M11         VEDIC_4x4_1_VEDIC_2x2_1_HA_2_N09191
+  VEDIC_4x4_1_VEDIC_2x2_1_N00417 0 0 MbreakN           
M_VEDIC_4x4_1_VEDIC_2x2_1_HA_2_M5         $D_HI VEDIC_4x4_1_VEDIC_2x2_1_N00417
+  VEDIC_4x4_1_VEDIC_2x2_1_HA_2_N06579 $D_HI MbreakP           
M_VEDIC_4x4_1_VEDIC_2x2_1_HA_2_M2         VEDIC_4x4_1_VEDIC_2x2_1_HA_2_N06008
+  VEDIC_4x4_1_VEDIC_2x2_1_N00417 0 0 MbreakN           
M_VEDIC_4x4_1_VEDIC_2x2_1_HA_2_M4         $D_HI VEDIC_4x4_1_VEDIC_2x2_1_N00445
+  VEDIC_4x4_1_VEDIC_2x2_1_HA_2_N06579 $D_HI MbreakP           
M_VEDIC_4x4_1_VEDIC_2x2_1_HA_2_M12         VEDIC_4x4_1_VEDIC_2x2_1_HA_2_N09404
+  VEDIC_4x4_1_VEDIC_2x2_1_N00445 VEDIC_4x4_1_N00459 $D_HI MbreakP           
M_VEDIC_4x4_1_VEDIC_2x2_1_HA_2_M1         VEDIC_4x4_1_VEDIC_2x2_1_HA_2_N06579
+  VEDIC_4x4_1_VEDIC_2x2_1_N00445 VEDIC_4x4_1_VEDIC_2x2_1_HA_2_N06008 0 MbreakN  
+          
M_VEDIC_4x4_1_VEDIC_2x2_1_HA_2_M6         $D_HI
+  VEDIC_4x4_1_VEDIC_2x2_1_HA_2_N06579 VEDIC_4x4_1_N00477 $D_HI MbreakP          
+  
M_VEDIC_4x4_1_VEDIC_2x2_1_HA_2_M13         VEDIC_4x4_1_VEDIC_2x2_1_HA_2_N09404
+  VEDIC_4x4_1_VEDIC_2x2_1_N00417 VEDIC_4x4_1_N00459 $D_HI MbreakP           
M_VEDIC_4x4_1_VEDIC_2x2_1_HA_2_M3         VEDIC_4x4_1_N00477
+  VEDIC_4x4_1_VEDIC_2x2_1_HA_2_N06579 0 0 MbreakN           
M_VEDIC_4x4_1_VEDIC_2x2_1_HA_2_M16         $D_HI VEDIC_4x4_1_VEDIC_2x2_1_N00445
+  VEDIC_4x4_1_VEDIC_2x2_1_HA_2_N11593 $D_HI MbreakP           
M_VEDIC_4x4_1_VEDIC_2x2_1_HA_2_M8         VEDIC_4x4_1_VEDIC_2x2_1_HA_2_N09076
+  VEDIC_4x4_1_VEDIC_2x2_1_HA_2_N11628 0 0 MbreakN           
M_VEDIC_4x4_1_VEDIC_2x2_1_HA_2_M14         $D_HI
+  VEDIC_4x4_1_VEDIC_2x2_1_HA_2_N11593 VEDIC_4x4_1_VEDIC_2x2_1_HA_2_N09404 $D_HI
+  MbreakP           
M_VEDIC_4x4_1_VEDIC_2x2_1_HA_2_M17         $D_HI VEDIC_4x4_1_VEDIC_2x2_1_N00417
+  VEDIC_4x4_1_VEDIC_2x2_1_HA_2_N11628 $D_HI MbreakP           
M_VEDIC_4x4_1_VEDIC_2x2_1_HA_2_M9         VEDIC_4x4_1_N00459
+  VEDIC_4x4_1_VEDIC_2x2_1_N00445 VEDIC_4x4_1_VEDIC_2x2_1_HA_2_N09191 0 MbreakN  
+          
M_VEDIC_4x4_1_VEDIC_2x2_1_HA_2_M15         $D_HI
+  VEDIC_4x4_1_VEDIC_2x2_1_HA_2_N11628 VEDIC_4x4_1_VEDIC_2x2_1_HA_2_N09404 $D_HI
+  MbreakP           
M_VEDIC_4x4_1_VEDIC_2x2_1_HA_2_M18         VEDIC_4x4_1_VEDIC_2x2_1_HA_2_N11593
+  VEDIC_4x4_1_VEDIC_2x2_1_N00445 0 0 MbreakN           
M_VEDIC_4x4_1_VEDIC_2x2_1_HA_2_M10         VEDIC_4x4_1_N00459
+  VEDIC_4x4_1_VEDIC_2x2_1_HA_2_N11593 VEDIC_4x4_1_VEDIC_2x2_1_HA_2_N09076 0
+  MbreakN           
M_VEDIC_4x4_1_VEDIC_2x2_1_HA_2_M19         VEDIC_4x4_1_VEDIC_2x2_1_HA_2_N11628
+  VEDIC_4x4_1_VEDIC_2x2_1_N00417 0 0 MbreakN           
M_VEDIC_4x4_1_VEDIC_2x2_1_AND_4_M5         $D_HI N21875
+  VEDIC_4x4_1_VEDIC_2x2_1_AND_4_N06579 $D_HI MbreakP           
M_VEDIC_4x4_1_VEDIC_2x2_1_AND_4_M2         VEDIC_4x4_1_VEDIC_2x2_1_AND_4_N06008
+  N21875 0 0 MbreakN           
M_VEDIC_4x4_1_VEDIC_2x2_1_AND_4_M4         $D_HI N21875
+  VEDIC_4x4_1_VEDIC_2x2_1_AND_4_N06579 $D_HI MbreakP           
M_VEDIC_4x4_1_VEDIC_2x2_1_AND_4_M1         VEDIC_4x4_1_VEDIC_2x2_1_AND_4_N06579
+  N21875 VEDIC_4x4_1_VEDIC_2x2_1_AND_4_N06008 0 MbreakN           
M_VEDIC_4x4_1_VEDIC_2x2_1_AND_4_M6         $D_HI
+  VEDIC_4x4_1_VEDIC_2x2_1_AND_4_N06579 VEDIC_4x4_1_VEDIC_2x2_1_N00417 $D_HI
+  MbreakP           
M_VEDIC_4x4_1_VEDIC_2x2_1_AND_4_M3         VEDIC_4x4_1_VEDIC_2x2_1_N00417
+  VEDIC_4x4_1_VEDIC_2x2_1_AND_4_N06579 0 0 MbreakN           
M_VEDIC_4x4_1_ADDER_6x6_1_4x4_1_HA_1_M11        
+  VEDIC_4x4_1_ADDER_6x6_1_4x4_1_HA_1_N09191 0 0 0 MbreakN           
M_VEDIC_4x4_1_ADDER_6x6_1_4x4_1_HA_1_M5         $D_HI 0
+  VEDIC_4x4_1_ADDER_6x6_1_4x4_1_HA_1_N06579 $D_HI MbreakP           
M_VEDIC_4x4_1_ADDER_6x6_1_4x4_1_HA_1_M2        
+  VEDIC_4x4_1_ADDER_6x6_1_4x4_1_HA_1_N06008 0 0 0 MbreakN           
M_VEDIC_4x4_1_ADDER_6x6_1_4x4_1_HA_1_M4         $D_HI VEDIC_4x4_1_N01971
+  VEDIC_4x4_1_ADDER_6x6_1_4x4_1_HA_1_N06579 $D_HI MbreakP           
M_VEDIC_4x4_1_ADDER_6x6_1_4x4_1_HA_1_M12        
+  VEDIC_4x4_1_ADDER_6x6_1_4x4_1_HA_1_N09404 VEDIC_4x4_1_N01971
+  VEDIC_4x4_1_N02988 $D_HI MbreakP           
M_VEDIC_4x4_1_ADDER_6x6_1_4x4_1_HA_1_M1        
+  VEDIC_4x4_1_ADDER_6x6_1_4x4_1_HA_1_N06579 VEDIC_4x4_1_N01971
+  VEDIC_4x4_1_ADDER_6x6_1_4x4_1_HA_1_N06008 0 MbreakN           
M_VEDIC_4x4_1_ADDER_6x6_1_4x4_1_HA_1_M6         $D_HI
+  VEDIC_4x4_1_ADDER_6x6_1_4x4_1_HA_1_N06579 VEDIC_4x4_1_ADDER_6x6_1_4x4_1_N00531
+  $D_HI MbreakP           
M_VEDIC_4x4_1_ADDER_6x6_1_4x4_1_HA_1_M13        
+  VEDIC_4x4_1_ADDER_6x6_1_4x4_1_HA_1_N09404 0 VEDIC_4x4_1_N02988 $D_HI MbreakP  
+          
M_VEDIC_4x4_1_ADDER_6x6_1_4x4_1_HA_1_M3        
+  VEDIC_4x4_1_ADDER_6x6_1_4x4_1_N00531 VEDIC_4x4_1_ADDER_6x6_1_4x4_1_HA_1_N06579
+  0 0 MbreakN           
M_VEDIC_4x4_1_ADDER_6x6_1_4x4_1_HA_1_M16         $D_HI VEDIC_4x4_1_N01971
+  VEDIC_4x4_1_ADDER_6x6_1_4x4_1_HA_1_N11593 $D_HI MbreakP           
M_VEDIC_4x4_1_ADDER_6x6_1_4x4_1_HA_1_M8        
+  VEDIC_4x4_1_ADDER_6x6_1_4x4_1_HA_1_N09076
+  VEDIC_4x4_1_ADDER_6x6_1_4x4_1_HA_1_N11628 0 0 MbreakN           
M_VEDIC_4x4_1_ADDER_6x6_1_4x4_1_HA_1_M14         $D_HI
+  VEDIC_4x4_1_ADDER_6x6_1_4x4_1_HA_1_N11593
+  VEDIC_4x4_1_ADDER_6x6_1_4x4_1_HA_1_N09404 $D_HI MbreakP           
M_VEDIC_4x4_1_ADDER_6x6_1_4x4_1_HA_1_M17         $D_HI 0
+  VEDIC_4x4_1_ADDER_6x6_1_4x4_1_HA_1_N11628 $D_HI MbreakP           
M_VEDIC_4x4_1_ADDER_6x6_1_4x4_1_HA_1_M9         VEDIC_4x4_1_N02988
+  VEDIC_4x4_1_N01971 VEDIC_4x4_1_ADDER_6x6_1_4x4_1_HA_1_N09191 0 MbreakN        
+    
M_VEDIC_4x4_1_ADDER_6x6_1_4x4_1_HA_1_M15         $D_HI
+  VEDIC_4x4_1_ADDER_6x6_1_4x4_1_HA_1_N11628
+  VEDIC_4x4_1_ADDER_6x6_1_4x4_1_HA_1_N09404 $D_HI MbreakP           
M_VEDIC_4x4_1_ADDER_6x6_1_4x4_1_HA_1_M18        
+  VEDIC_4x4_1_ADDER_6x6_1_4x4_1_HA_1_N11593 VEDIC_4x4_1_N01971 0 0 MbreakN      
+      
M_VEDIC_4x4_1_ADDER_6x6_1_4x4_1_HA_1_M10         VEDIC_4x4_1_N02988
+  VEDIC_4x4_1_ADDER_6x6_1_4x4_1_HA_1_N11593
+  VEDIC_4x4_1_ADDER_6x6_1_4x4_1_HA_1_N09076 0 MbreakN           
M_VEDIC_4x4_1_ADDER_6x6_1_4x4_1_HA_1_M19        
+  VEDIC_4x4_1_ADDER_6x6_1_4x4_1_HA_1_N11628 0 0 0 MbreakN           
M_VEDIC_4x4_1_ADDER_6x6_1_4x4_1_FA_1_M6        
+  VEDIC_4x4_1_ADDER_6x6_1_4x4_1_N00549 VEDIC_4x4_1_ADDER_6x6_1_4x4_1_FA_1_N00946
+  0 0 MbreakN           
M_VEDIC_4x4_1_ADDER_6x6_1_4x4_1_FA_1_HA1_M11        
+  VEDIC_4x4_1_ADDER_6x6_1_4x4_1_FA_1_HA1_N09191 0 0 0 MbreakN           
M_VEDIC_4x4_1_ADDER_6x6_1_4x4_1_FA_1_HA1_M5         $D_HI 0
+  VEDIC_4x4_1_ADDER_6x6_1_4x4_1_FA_1_HA1_N06579 $D_HI MbreakP           
M_VEDIC_4x4_1_ADDER_6x6_1_4x4_1_FA_1_HA1_M2        
+  VEDIC_4x4_1_ADDER_6x6_1_4x4_1_FA_1_HA1_N06008 0 0 0 MbreakN           
M_VEDIC_4x4_1_ADDER_6x6_1_4x4_1_FA_1_HA1_M4         $D_HI VEDIC_4x4_1_N08177
+  VEDIC_4x4_1_ADDER_6x6_1_4x4_1_FA_1_HA1_N06579 $D_HI MbreakP           
M_VEDIC_4x4_1_ADDER_6x6_1_4x4_1_FA_1_HA1_M12        
+  VEDIC_4x4_1_ADDER_6x6_1_4x4_1_FA_1_HA1_N09404 VEDIC_4x4_1_N08177
+  VEDIC_4x4_1_ADDER_6x6_1_4x4_1_FA_1_N00311 $D_HI MbreakP           
M_VEDIC_4x4_1_ADDER_6x6_1_4x4_1_FA_1_HA1_M1        
+  VEDIC_4x4_1_ADDER_6x6_1_4x4_1_FA_1_HA1_N06579 VEDIC_4x4_1_N08177
+  VEDIC_4x4_1_ADDER_6x6_1_4x4_1_FA_1_HA1_N06008 0 MbreakN           
M_VEDIC_4x4_1_ADDER_6x6_1_4x4_1_FA_1_HA1_M6         $D_HI
+  VEDIC_4x4_1_ADDER_6x6_1_4x4_1_FA_1_HA1_N06579
+  VEDIC_4x4_1_ADDER_6x6_1_4x4_1_FA_1_N01184 $D_HI MbreakP           
M_VEDIC_4x4_1_ADDER_6x6_1_4x4_1_FA_1_HA1_M13        
+  VEDIC_4x4_1_ADDER_6x6_1_4x4_1_FA_1_HA1_N09404 0
+  VEDIC_4x4_1_ADDER_6x6_1_4x4_1_FA_1_N00311 $D_HI MbreakP           
M_VEDIC_4x4_1_ADDER_6x6_1_4x4_1_FA_1_HA1_M3        
+  VEDIC_4x4_1_ADDER_6x6_1_4x4_1_FA_1_N01184
+  VEDIC_4x4_1_ADDER_6x6_1_4x4_1_FA_1_HA1_N06579 0 0 MbreakN           
M_VEDIC_4x4_1_ADDER_6x6_1_4x4_1_FA_1_HA1_M16         $D_HI VEDIC_4x4_1_N08177
+  VEDIC_4x4_1_ADDER_6x6_1_4x4_1_FA_1_HA1_N11593 $D_HI MbreakP           
M_VEDIC_4x4_1_ADDER_6x6_1_4x4_1_FA_1_HA1_M8        
+  VEDIC_4x4_1_ADDER_6x6_1_4x4_1_FA_1_HA1_N09076
+  VEDIC_4x4_1_ADDER_6x6_1_4x4_1_FA_1_HA1_N11628 0 0 MbreakN           
M_VEDIC_4x4_1_ADDER_6x6_1_4x4_1_FA_1_HA1_M14         $D_HI
+  VEDIC_4x4_1_ADDER_6x6_1_4x4_1_FA_1_HA1_N11593
+  VEDIC_4x4_1_ADDER_6x6_1_4x4_1_FA_1_HA1_N09404 $D_HI MbreakP           
M_VEDIC_4x4_1_ADDER_6x6_1_4x4_1_FA_1_HA1_M17         $D_HI 0
+  VEDIC_4x4_1_ADDER_6x6_1_4x4_1_FA_1_HA1_N11628 $D_HI MbreakP           
M_VEDIC_4x4_1_ADDER_6x6_1_4x4_1_FA_1_HA1_M9        
+  VEDIC_4x4_1_ADDER_6x6_1_4x4_1_FA_1_N00311 VEDIC_4x4_1_N08177
+  VEDIC_4x4_1_ADDER_6x6_1_4x4_1_FA_1_HA1_N09191 0 MbreakN           
M_VEDIC_4x4_1_ADDER_6x6_1_4x4_1_FA_1_HA1_M15         $D_HI
+  VEDIC_4x4_1_ADDER_6x6_1_4x4_1_FA_1_HA1_N11628
+  VEDIC_4x4_1_ADDER_6x6_1_4x4_1_FA_1_HA1_N09404 $D_HI MbreakP           
M_VEDIC_4x4_1_ADDER_6x6_1_4x4_1_FA_1_HA1_M18        
+  VEDIC_4x4_1_ADDER_6x6_1_4x4_1_FA_1_HA1_N11593 VEDIC_4x4_1_N08177 0 0 MbreakN  
+          
M_VEDIC_4x4_1_ADDER_6x6_1_4x4_1_FA_1_HA1_M10        
+  VEDIC_4x4_1_ADDER_6x6_1_4x4_1_FA_1_N00311
+  VEDIC_4x4_1_ADDER_6x6_1_4x4_1_FA_1_HA1_N11593
+  VEDIC_4x4_1_ADDER_6x6_1_4x4_1_FA_1_HA1_N09076 0 MbreakN           
M_VEDIC_4x4_1_ADDER_6x6_1_4x4_1_FA_1_HA1_M19        
+  VEDIC_4x4_1_ADDER_6x6_1_4x4_1_FA_1_HA1_N11628 0 0 0 MbreakN           
M_VEDIC_4x4_1_ADDER_6x6_1_4x4_1_FA_1_M1        
+  VEDIC_4x4_1_ADDER_6x6_1_4x4_1_FA_1_N00946
+  VEDIC_4x4_1_ADDER_6x6_1_4x4_1_FA_1_N01184 0 0 MbreakN           
M_VEDIC_4x4_1_ADDER_6x6_1_4x4_1_FA_1_HA2_M11        
+  VEDIC_4x4_1_ADDER_6x6_1_4x4_1_FA_1_HA2_N09191
+  VEDIC_4x4_1_ADDER_6x6_1_4x4_1_FA_1_N00311 0 0 MbreakN           
M_VEDIC_4x4_1_ADDER_6x6_1_4x4_1_FA_1_HA2_M5         $D_HI
+  VEDIC_4x4_1_ADDER_6x6_1_4x4_1_FA_1_N00311
+  VEDIC_4x4_1_ADDER_6x6_1_4x4_1_FA_1_HA2_N06579 $D_HI MbreakP           
M_VEDIC_4x4_1_ADDER_6x6_1_4x4_1_FA_1_HA2_M2        
+  VEDIC_4x4_1_ADDER_6x6_1_4x4_1_FA_1_HA2_N06008
+  VEDIC_4x4_1_ADDER_6x6_1_4x4_1_FA_1_N00311 0 0 MbreakN           
M_VEDIC_4x4_1_ADDER_6x6_1_4x4_1_FA_1_HA2_M4         $D_HI
+  VEDIC_4x4_1_ADDER_6x6_1_4x4_1_N00531
+  VEDIC_4x4_1_ADDER_6x6_1_4x4_1_FA_1_HA2_N06579 $D_HI MbreakP           
M_VEDIC_4x4_1_ADDER_6x6_1_4x4_1_FA_1_HA2_M12        
+  VEDIC_4x4_1_ADDER_6x6_1_4x4_1_FA_1_HA2_N09404
+  VEDIC_4x4_1_ADDER_6x6_1_4x4_1_N00531 VEDIC_4x4_1_N02999 $D_HI MbreakP         
+   
M_VEDIC_4x4_1_ADDER_6x6_1_4x4_1_FA_1_HA2_M1        
+  VEDIC_4x4_1_ADDER_6x6_1_4x4_1_FA_1_HA2_N06579
+  VEDIC_4x4_1_ADDER_6x6_1_4x4_1_N00531
+  VEDIC_4x4_1_ADDER_6x6_1_4x4_1_FA_1_HA2_N06008 0 MbreakN           
M_VEDIC_4x4_1_ADDER_6x6_1_4x4_1_FA_1_HA2_M6         $D_HI
+  VEDIC_4x4_1_ADDER_6x6_1_4x4_1_FA_1_HA2_N06579
+  VEDIC_4x4_1_ADDER_6x6_1_4x4_1_FA_1_N01242 $D_HI MbreakP           
M_VEDIC_4x4_1_ADDER_6x6_1_4x4_1_FA_1_HA2_M13        
+  VEDIC_4x4_1_ADDER_6x6_1_4x4_1_FA_1_HA2_N09404
+  VEDIC_4x4_1_ADDER_6x6_1_4x4_1_FA_1_N00311 VEDIC_4x4_1_N02999 $D_HI MbreakP    
+        
M_VEDIC_4x4_1_ADDER_6x6_1_4x4_1_FA_1_HA2_M3        
+  VEDIC_4x4_1_ADDER_6x6_1_4x4_1_FA_1_N01242
+  VEDIC_4x4_1_ADDER_6x6_1_4x4_1_FA_1_HA2_N06579 0 0 MbreakN           
M_VEDIC_4x4_1_ADDER_6x6_1_4x4_1_FA_1_HA2_M16         $D_HI
+  VEDIC_4x4_1_ADDER_6x6_1_4x4_1_N00531
+  VEDIC_4x4_1_ADDER_6x6_1_4x4_1_FA_1_HA2_N11593 $D_HI MbreakP           
M_VEDIC_4x4_1_ADDER_6x6_1_4x4_1_FA_1_HA2_M8        
+  VEDIC_4x4_1_ADDER_6x6_1_4x4_1_FA_1_HA2_N09076
+  VEDIC_4x4_1_ADDER_6x6_1_4x4_1_FA_1_HA2_N11628 0 0 MbreakN           
M_VEDIC_4x4_1_ADDER_6x6_1_4x4_1_FA_1_HA2_M14         $D_HI
+  VEDIC_4x4_1_ADDER_6x6_1_4x4_1_FA_1_HA2_N11593
+  VEDIC_4x4_1_ADDER_6x6_1_4x4_1_FA_1_HA2_N09404 $D_HI MbreakP           
M_VEDIC_4x4_1_ADDER_6x6_1_4x4_1_FA_1_HA2_M17         $D_HI
+  VEDIC_4x4_1_ADDER_6x6_1_4x4_1_FA_1_N00311
+  VEDIC_4x4_1_ADDER_6x6_1_4x4_1_FA_1_HA2_N11628 $D_HI MbreakP           
M_VEDIC_4x4_1_ADDER_6x6_1_4x4_1_FA_1_HA2_M9         VEDIC_4x4_1_N02999
+  VEDIC_4x4_1_ADDER_6x6_1_4x4_1_N00531
+  VEDIC_4x4_1_ADDER_6x6_1_4x4_1_FA_1_HA2_N09191 0 MbreakN           
M_VEDIC_4x4_1_ADDER_6x6_1_4x4_1_FA_1_HA2_M15         $D_HI
+  VEDIC_4x4_1_ADDER_6x6_1_4x4_1_FA_1_HA2_N11628
+  VEDIC_4x4_1_ADDER_6x6_1_4x4_1_FA_1_HA2_N09404 $D_HI MbreakP           
M_VEDIC_4x4_1_ADDER_6x6_1_4x4_1_FA_1_HA2_M18        
+  VEDIC_4x4_1_ADDER_6x6_1_4x4_1_FA_1_HA2_N11593
+  VEDIC_4x4_1_ADDER_6x6_1_4x4_1_N00531 0 0 MbreakN           
M_VEDIC_4x4_1_ADDER_6x6_1_4x4_1_FA_1_HA2_M10         VEDIC_4x4_1_N02999
+  VEDIC_4x4_1_ADDER_6x6_1_4x4_1_FA_1_HA2_N11593
+  VEDIC_4x4_1_ADDER_6x6_1_4x4_1_FA_1_HA2_N09076 0 MbreakN           
M_VEDIC_4x4_1_ADDER_6x6_1_4x4_1_FA_1_HA2_M19        
+  VEDIC_4x4_1_ADDER_6x6_1_4x4_1_FA_1_HA2_N11628
+  VEDIC_4x4_1_ADDER_6x6_1_4x4_1_FA_1_N00311 0 0 MbreakN           
M_VEDIC_4x4_1_ADDER_6x6_1_4x4_1_FA_1_M3        
+  VEDIC_4x4_1_ADDER_6x6_1_4x4_1_FA_1_N01015
+  VEDIC_4x4_1_ADDER_6x6_1_4x4_1_FA_1_N01242
+  VEDIC_4x4_1_ADDER_6x6_1_4x4_1_FA_1_N00946 $D_HI MbreakP           
M_VEDIC_4x4_1_ADDER_6x6_1_4x4_1_FA_1_M2        
+  VEDIC_4x4_1_ADDER_6x6_1_4x4_1_FA_1_N00946
+  VEDIC_4x4_1_ADDER_6x6_1_4x4_1_FA_1_N01242 0 0 MbreakN           
M_VEDIC_4x4_1_ADDER_6x6_1_4x4_1_FA_1_M4         $D_HI
+  VEDIC_4x4_1_ADDER_6x6_1_4x4_1_FA_1_N01184
+  VEDIC_4x4_1_ADDER_6x6_1_4x4_1_FA_1_N01015 $D_HI MbreakP           
M_VEDIC_4x4_1_ADDER_6x6_1_4x4_1_FA_1_M5         $D_HI
+  VEDIC_4x4_1_ADDER_6x6_1_4x4_1_FA_1_N00946 VEDIC_4x4_1_ADDER_6x6_1_4x4_1_N00549
+  $D_HI MbreakP           
M_VEDIC_4x4_1_ADDER_6x6_1_4x4_1_FA_2_M6        
+  VEDIC_4x4_1_ADDER_6x6_1_4x4_1_N00567 VEDIC_4x4_1_ADDER_6x6_1_4x4_1_FA_2_N00946
+  0 0 MbreakN           
M_VEDIC_4x4_1_ADDER_6x6_1_4x4_1_FA_2_HA1_M11        
+  VEDIC_4x4_1_ADDER_6x6_1_4x4_1_FA_2_HA1_N09191 VEDIC_4x4_1_N02552 0 0 MbreakN  
+          
M_VEDIC_4x4_1_ADDER_6x6_1_4x4_1_FA_2_HA1_M5         $D_HI VEDIC_4x4_1_N02552
+  VEDIC_4x4_1_ADDER_6x6_1_4x4_1_FA_2_HA1_N06579 $D_HI MbreakP           
M_VEDIC_4x4_1_ADDER_6x6_1_4x4_1_FA_2_HA1_M2        
+  VEDIC_4x4_1_ADDER_6x6_1_4x4_1_FA_2_HA1_N06008 VEDIC_4x4_1_N02552 0 0 MbreakN  
+          
M_VEDIC_4x4_1_ADDER_6x6_1_4x4_1_FA_2_HA1_M4         $D_HI VEDIC_4x4_1_N02007
+  VEDIC_4x4_1_ADDER_6x6_1_4x4_1_FA_2_HA1_N06579 $D_HI MbreakP           
M_VEDIC_4x4_1_ADDER_6x6_1_4x4_1_FA_2_HA1_M12        
+  VEDIC_4x4_1_ADDER_6x6_1_4x4_1_FA_2_HA1_N09404 VEDIC_4x4_1_N02007
+  VEDIC_4x4_1_ADDER_6x6_1_4x4_1_FA_2_N00311 $D_HI MbreakP           
M_VEDIC_4x4_1_ADDER_6x6_1_4x4_1_FA_2_HA1_M1        
+  VEDIC_4x4_1_ADDER_6x6_1_4x4_1_FA_2_HA1_N06579 VEDIC_4x4_1_N02007
+  VEDIC_4x4_1_ADDER_6x6_1_4x4_1_FA_2_HA1_N06008 0 MbreakN           
M_VEDIC_4x4_1_ADDER_6x6_1_4x4_1_FA_2_HA1_M6         $D_HI
+  VEDIC_4x4_1_ADDER_6x6_1_4x4_1_FA_2_HA1_N06579
+  VEDIC_4x4_1_ADDER_6x6_1_4x4_1_FA_2_N01184 $D_HI MbreakP           
M_VEDIC_4x4_1_ADDER_6x6_1_4x4_1_FA_2_HA1_M13        
+  VEDIC_4x4_1_ADDER_6x6_1_4x4_1_FA_2_HA1_N09404 VEDIC_4x4_1_N02552
+  VEDIC_4x4_1_ADDER_6x6_1_4x4_1_FA_2_N00311 $D_HI MbreakP           
M_VEDIC_4x4_1_ADDER_6x6_1_4x4_1_FA_2_HA1_M3        
+  VEDIC_4x4_1_ADDER_6x6_1_4x4_1_FA_2_N01184
+  VEDIC_4x4_1_ADDER_6x6_1_4x4_1_FA_2_HA1_N06579 0 0 MbreakN           
M_VEDIC_4x4_1_ADDER_6x6_1_4x4_1_FA_2_HA1_M16         $D_HI VEDIC_4x4_1_N02007
+  VEDIC_4x4_1_ADDER_6x6_1_4x4_1_FA_2_HA1_N11593 $D_HI MbreakP           
M_VEDIC_4x4_1_ADDER_6x6_1_4x4_1_FA_2_HA1_M8        
+  VEDIC_4x4_1_ADDER_6x6_1_4x4_1_FA_2_HA1_N09076
+  VEDIC_4x4_1_ADDER_6x6_1_4x4_1_FA_2_HA1_N11628 0 0 MbreakN           
M_VEDIC_4x4_1_ADDER_6x6_1_4x4_1_FA_2_HA1_M14         $D_HI
+  VEDIC_4x4_1_ADDER_6x6_1_4x4_1_FA_2_HA1_N11593
+  VEDIC_4x4_1_ADDER_6x6_1_4x4_1_FA_2_HA1_N09404 $D_HI MbreakP           
M_VEDIC_4x4_1_ADDER_6x6_1_4x4_1_FA_2_HA1_M17         $D_HI VEDIC_4x4_1_N02552
+  VEDIC_4x4_1_ADDER_6x6_1_4x4_1_FA_2_HA1_N11628 $D_HI MbreakP           
M_VEDIC_4x4_1_ADDER_6x6_1_4x4_1_FA_2_HA1_M9        
+  VEDIC_4x4_1_ADDER_6x6_1_4x4_1_FA_2_N00311 VEDIC_4x4_1_N02007
+  VEDIC_4x4_1_ADDER_6x6_1_4x4_1_FA_2_HA1_N09191 0 MbreakN           
M_VEDIC_4x4_1_ADDER_6x6_1_4x4_1_FA_2_HA1_M15         $D_HI
+  VEDIC_4x4_1_ADDER_6x6_1_4x4_1_FA_2_HA1_N11628
+  VEDIC_4x4_1_ADDER_6x6_1_4x4_1_FA_2_HA1_N09404 $D_HI MbreakP           
M_VEDIC_4x4_1_ADDER_6x6_1_4x4_1_FA_2_HA1_M18        
+  VEDIC_4x4_1_ADDER_6x6_1_4x4_1_FA_2_HA1_N11593 VEDIC_4x4_1_N02007 0 0 MbreakN  
+          
M_VEDIC_4x4_1_ADDER_6x6_1_4x4_1_FA_2_HA1_M10        
+  VEDIC_4x4_1_ADDER_6x6_1_4x4_1_FA_2_N00311
+  VEDIC_4x4_1_ADDER_6x6_1_4x4_1_FA_2_HA1_N11593
+  VEDIC_4x4_1_ADDER_6x6_1_4x4_1_FA_2_HA1_N09076 0 MbreakN           
M_VEDIC_4x4_1_ADDER_6x6_1_4x4_1_FA_2_HA1_M19        
+  VEDIC_4x4_1_ADDER_6x6_1_4x4_1_FA_2_HA1_N11628 VEDIC_4x4_1_N02552 0 0 MbreakN  
+          
M_VEDIC_4x4_1_ADDER_6x6_1_4x4_1_FA_2_M1        
+  VEDIC_4x4_1_ADDER_6x6_1_4x4_1_FA_2_N00946
+  VEDIC_4x4_1_ADDER_6x6_1_4x4_1_FA_2_N01184 0 0 MbreakN           
M_VEDIC_4x4_1_ADDER_6x6_1_4x4_1_FA_2_HA2_M11        
+  VEDIC_4x4_1_ADDER_6x6_1_4x4_1_FA_2_HA2_N09191
+  VEDIC_4x4_1_ADDER_6x6_1_4x4_1_FA_2_N00311 0 0 MbreakN           
M_VEDIC_4x4_1_ADDER_6x6_1_4x4_1_FA_2_HA2_M5         $D_HI
+  VEDIC_4x4_1_ADDER_6x6_1_4x4_1_FA_2_N00311
+  VEDIC_4x4_1_ADDER_6x6_1_4x4_1_FA_2_HA2_N06579 $D_HI MbreakP           
M_VEDIC_4x4_1_ADDER_6x6_1_4x4_1_FA_2_HA2_M2        
+  VEDIC_4x4_1_ADDER_6x6_1_4x4_1_FA_2_HA2_N06008
+  VEDIC_4x4_1_ADDER_6x6_1_4x4_1_FA_2_N00311 0 0 MbreakN           
M_VEDIC_4x4_1_ADDER_6x6_1_4x4_1_FA_2_HA2_M4         $D_HI
+  VEDIC_4x4_1_ADDER_6x6_1_4x4_1_N00549
+  VEDIC_4x4_1_ADDER_6x6_1_4x4_1_FA_2_HA2_N06579 $D_HI MbreakP           
M_VEDIC_4x4_1_ADDER_6x6_1_4x4_1_FA_2_HA2_M12        
+  VEDIC_4x4_1_ADDER_6x6_1_4x4_1_FA_2_HA2_N09404
+  VEDIC_4x4_1_ADDER_6x6_1_4x4_1_N00549 VEDIC_4x4_1_N03010 $D_HI MbreakP         
+   
M_VEDIC_4x4_1_ADDER_6x6_1_4x4_1_FA_2_HA2_M1        
+  VEDIC_4x4_1_ADDER_6x6_1_4x4_1_FA_2_HA2_N06579
+  VEDIC_4x4_1_ADDER_6x6_1_4x4_1_N00549
+  VEDIC_4x4_1_ADDER_6x6_1_4x4_1_FA_2_HA2_N06008 0 MbreakN           
M_VEDIC_4x4_1_ADDER_6x6_1_4x4_1_FA_2_HA2_M6         $D_HI
+  VEDIC_4x4_1_ADDER_6x6_1_4x4_1_FA_2_HA2_N06579
+  VEDIC_4x4_1_ADDER_6x6_1_4x4_1_FA_2_N01242 $D_HI MbreakP           
M_VEDIC_4x4_1_ADDER_6x6_1_4x4_1_FA_2_HA2_M13        
+  VEDIC_4x4_1_ADDER_6x6_1_4x4_1_FA_2_HA2_N09404
+  VEDIC_4x4_1_ADDER_6x6_1_4x4_1_FA_2_N00311 VEDIC_4x4_1_N03010 $D_HI MbreakP    
+        
M_VEDIC_4x4_1_ADDER_6x6_1_4x4_1_FA_2_HA2_M3        
+  VEDIC_4x4_1_ADDER_6x6_1_4x4_1_FA_2_N01242
+  VEDIC_4x4_1_ADDER_6x6_1_4x4_1_FA_2_HA2_N06579 0 0 MbreakN           
M_VEDIC_4x4_1_ADDER_6x6_1_4x4_1_FA_2_HA2_M16         $D_HI
+  VEDIC_4x4_1_ADDER_6x6_1_4x4_1_N00549
+  VEDIC_4x4_1_ADDER_6x6_1_4x4_1_FA_2_HA2_N11593 $D_HI MbreakP           
M_VEDIC_4x4_1_ADDER_6x6_1_4x4_1_FA_2_HA2_M8        
+  VEDIC_4x4_1_ADDER_6x6_1_4x4_1_FA_2_HA2_N09076
+  VEDIC_4x4_1_ADDER_6x6_1_4x4_1_FA_2_HA2_N11628 0 0 MbreakN           
M_VEDIC_4x4_1_ADDER_6x6_1_4x4_1_FA_2_HA2_M14         $D_HI
+  VEDIC_4x4_1_ADDER_6x6_1_4x4_1_FA_2_HA2_N11593
+  VEDIC_4x4_1_ADDER_6x6_1_4x4_1_FA_2_HA2_N09404 $D_HI MbreakP           
M_VEDIC_4x4_1_ADDER_6x6_1_4x4_1_FA_2_HA2_M17         $D_HI
+  VEDIC_4x4_1_ADDER_6x6_1_4x4_1_FA_2_N00311
+  VEDIC_4x4_1_ADDER_6x6_1_4x4_1_FA_2_HA2_N11628 $D_HI MbreakP           
M_VEDIC_4x4_1_ADDER_6x6_1_4x4_1_FA_2_HA2_M9         VEDIC_4x4_1_N03010
+  VEDIC_4x4_1_ADDER_6x6_1_4x4_1_N00549
+  VEDIC_4x4_1_ADDER_6x6_1_4x4_1_FA_2_HA2_N09191 0 MbreakN           
M_VEDIC_4x4_1_ADDER_6x6_1_4x4_1_FA_2_HA2_M15         $D_HI
+  VEDIC_4x4_1_ADDER_6x6_1_4x4_1_FA_2_HA2_N11628
+  VEDIC_4x4_1_ADDER_6x6_1_4x4_1_FA_2_HA2_N09404 $D_HI MbreakP           
M_VEDIC_4x4_1_ADDER_6x6_1_4x4_1_FA_2_HA2_M18        
+  VEDIC_4x4_1_ADDER_6x6_1_4x4_1_FA_2_HA2_N11593
+  VEDIC_4x4_1_ADDER_6x6_1_4x4_1_N00549 0 0 MbreakN           
M_VEDIC_4x4_1_ADDER_6x6_1_4x4_1_FA_2_HA2_M10         VEDIC_4x4_1_N03010
+  VEDIC_4x4_1_ADDER_6x6_1_4x4_1_FA_2_HA2_N11593
+  VEDIC_4x4_1_ADDER_6x6_1_4x4_1_FA_2_HA2_N09076 0 MbreakN           
M_VEDIC_4x4_1_ADDER_6x6_1_4x4_1_FA_2_HA2_M19        
+  VEDIC_4x4_1_ADDER_6x6_1_4x4_1_FA_2_HA2_N11628
+  VEDIC_4x4_1_ADDER_6x6_1_4x4_1_FA_2_N00311 0 0 MbreakN           
M_VEDIC_4x4_1_ADDER_6x6_1_4x4_1_FA_2_M3        
+  VEDIC_4x4_1_ADDER_6x6_1_4x4_1_FA_2_N01015
+  VEDIC_4x4_1_ADDER_6x6_1_4x4_1_FA_2_N01242
+  VEDIC_4x4_1_ADDER_6x6_1_4x4_1_FA_2_N00946 $D_HI MbreakP           
M_VEDIC_4x4_1_ADDER_6x6_1_4x4_1_FA_2_M2        
+  VEDIC_4x4_1_ADDER_6x6_1_4x4_1_FA_2_N00946
+  VEDIC_4x4_1_ADDER_6x6_1_4x4_1_FA_2_N01242 0 0 MbreakN           
M_VEDIC_4x4_1_ADDER_6x6_1_4x4_1_FA_2_M4         $D_HI
+  VEDIC_4x4_1_ADDER_6x6_1_4x4_1_FA_2_N01184
+  VEDIC_4x4_1_ADDER_6x6_1_4x4_1_FA_2_N01015 $D_HI MbreakP           
M_VEDIC_4x4_1_ADDER_6x6_1_4x4_1_FA_2_M5         $D_HI
+  VEDIC_4x4_1_ADDER_6x6_1_4x4_1_FA_2_N00946 VEDIC_4x4_1_ADDER_6x6_1_4x4_1_N00567
+  $D_HI MbreakP           
M_VEDIC_4x4_1_ADDER_6x6_1_4x4_1_FA_3_M6         VEDIC_4x4_1_ADDER_6x6_1_N00579
+  VEDIC_4x4_1_ADDER_6x6_1_4x4_1_FA_3_N00946 0 0 MbreakN           
M_VEDIC_4x4_1_ADDER_6x6_1_4x4_1_FA_3_HA1_M11        
+  VEDIC_4x4_1_ADDER_6x6_1_4x4_1_FA_3_HA1_N09191 VEDIC_4x4_1_N02374 0 0 MbreakN  
+          
M_VEDIC_4x4_1_ADDER_6x6_1_4x4_1_FA_3_HA1_M5         $D_HI VEDIC_4x4_1_N02374
+  VEDIC_4x4_1_ADDER_6x6_1_4x4_1_FA_3_HA1_N06579 $D_HI MbreakP           
M_VEDIC_4x4_1_ADDER_6x6_1_4x4_1_FA_3_HA1_M2        
+  VEDIC_4x4_1_ADDER_6x6_1_4x4_1_FA_3_HA1_N06008 VEDIC_4x4_1_N02374 0 0 MbreakN  
+          
M_VEDIC_4x4_1_ADDER_6x6_1_4x4_1_FA_3_HA1_M4         $D_HI VEDIC_4x4_1_N02025
+  VEDIC_4x4_1_ADDER_6x6_1_4x4_1_FA_3_HA1_N06579 $D_HI MbreakP           
M_VEDIC_4x4_1_ADDER_6x6_1_4x4_1_FA_3_HA1_M12        
+  VEDIC_4x4_1_ADDER_6x6_1_4x4_1_FA_3_HA1_N09404 VEDIC_4x4_1_N02025
+  VEDIC_4x4_1_ADDER_6x6_1_4x4_1_FA_3_N00311 $D_HI MbreakP           
M_VEDIC_4x4_1_ADDER_6x6_1_4x4_1_FA_3_HA1_M1        
+  VEDIC_4x4_1_ADDER_6x6_1_4x4_1_FA_3_HA1_N06579 VEDIC_4x4_1_N02025
+  VEDIC_4x4_1_ADDER_6x6_1_4x4_1_FA_3_HA1_N06008 0 MbreakN           
M_VEDIC_4x4_1_ADDER_6x6_1_4x4_1_FA_3_HA1_M6         $D_HI
+  VEDIC_4x4_1_ADDER_6x6_1_4x4_1_FA_3_HA1_N06579
+  VEDIC_4x4_1_ADDER_6x6_1_4x4_1_FA_3_N01184 $D_HI MbreakP           
M_VEDIC_4x4_1_ADDER_6x6_1_4x4_1_FA_3_HA1_M13        
+  VEDIC_4x4_1_ADDER_6x6_1_4x4_1_FA_3_HA1_N09404 VEDIC_4x4_1_N02374
+  VEDIC_4x4_1_ADDER_6x6_1_4x4_1_FA_3_N00311 $D_HI MbreakP           
M_VEDIC_4x4_1_ADDER_6x6_1_4x4_1_FA_3_HA1_M3        
+  VEDIC_4x4_1_ADDER_6x6_1_4x4_1_FA_3_N01184
+  VEDIC_4x4_1_ADDER_6x6_1_4x4_1_FA_3_HA1_N06579 0 0 MbreakN           
M_VEDIC_4x4_1_ADDER_6x6_1_4x4_1_FA_3_HA1_M16         $D_HI VEDIC_4x4_1_N02025
+  VEDIC_4x4_1_ADDER_6x6_1_4x4_1_FA_3_HA1_N11593 $D_HI MbreakP           
M_VEDIC_4x4_1_ADDER_6x6_1_4x4_1_FA_3_HA1_M8        
+  VEDIC_4x4_1_ADDER_6x6_1_4x4_1_FA_3_HA1_N09076
+  VEDIC_4x4_1_ADDER_6x6_1_4x4_1_FA_3_HA1_N11628 0 0 MbreakN           
M_VEDIC_4x4_1_ADDER_6x6_1_4x4_1_FA_3_HA1_M14         $D_HI
+  VEDIC_4x4_1_ADDER_6x6_1_4x4_1_FA_3_HA1_N11593
+  VEDIC_4x4_1_ADDER_6x6_1_4x4_1_FA_3_HA1_N09404 $D_HI MbreakP           
M_VEDIC_4x4_1_ADDER_6x6_1_4x4_1_FA_3_HA1_M17         $D_HI VEDIC_4x4_1_N02374
+  VEDIC_4x4_1_ADDER_6x6_1_4x4_1_FA_3_HA1_N11628 $D_HI MbreakP           
M_VEDIC_4x4_1_ADDER_6x6_1_4x4_1_FA_3_HA1_M9        
+  VEDIC_4x4_1_ADDER_6x6_1_4x4_1_FA_3_N00311 VEDIC_4x4_1_N02025
+  VEDIC_4x4_1_ADDER_6x6_1_4x4_1_FA_3_HA1_N09191 0 MbreakN           
M_VEDIC_4x4_1_ADDER_6x6_1_4x4_1_FA_3_HA1_M15         $D_HI
+  VEDIC_4x4_1_ADDER_6x6_1_4x4_1_FA_3_HA1_N11628
+  VEDIC_4x4_1_ADDER_6x6_1_4x4_1_FA_3_HA1_N09404 $D_HI MbreakP           
M_VEDIC_4x4_1_ADDER_6x6_1_4x4_1_FA_3_HA1_M18        
+  VEDIC_4x4_1_ADDER_6x6_1_4x4_1_FA_3_HA1_N11593 VEDIC_4x4_1_N02025 0 0 MbreakN  
+          
M_VEDIC_4x4_1_ADDER_6x6_1_4x4_1_FA_3_HA1_M10        
+  VEDIC_4x4_1_ADDER_6x6_1_4x4_1_FA_3_N00311
+  VEDIC_4x4_1_ADDER_6x6_1_4x4_1_FA_3_HA1_N11593
+  VEDIC_4x4_1_ADDER_6x6_1_4x4_1_FA_3_HA1_N09076 0 MbreakN           
M_VEDIC_4x4_1_ADDER_6x6_1_4x4_1_FA_3_HA1_M19        
+  VEDIC_4x4_1_ADDER_6x6_1_4x4_1_FA_3_HA1_N11628 VEDIC_4x4_1_N02374 0 0 MbreakN  
+          
M_VEDIC_4x4_1_ADDER_6x6_1_4x4_1_FA_3_M1        
+  VEDIC_4x4_1_ADDER_6x6_1_4x4_1_FA_3_N00946
+  VEDIC_4x4_1_ADDER_6x6_1_4x4_1_FA_3_N01184 0 0 MbreakN           
M_VEDIC_4x4_1_ADDER_6x6_1_4x4_1_FA_3_HA2_M11        
+  VEDIC_4x4_1_ADDER_6x6_1_4x4_1_FA_3_HA2_N09191
+  VEDIC_4x4_1_ADDER_6x6_1_4x4_1_FA_3_N00311 0 0 MbreakN           
M_VEDIC_4x4_1_ADDER_6x6_1_4x4_1_FA_3_HA2_M5         $D_HI
+  VEDIC_4x4_1_ADDER_6x6_1_4x4_1_FA_3_N00311
+  VEDIC_4x4_1_ADDER_6x6_1_4x4_1_FA_3_HA2_N06579 $D_HI MbreakP           
M_VEDIC_4x4_1_ADDER_6x6_1_4x4_1_FA_3_HA2_M2        
+  VEDIC_4x4_1_ADDER_6x6_1_4x4_1_FA_3_HA2_N06008
+  VEDIC_4x4_1_ADDER_6x6_1_4x4_1_FA_3_N00311 0 0 MbreakN           
M_VEDIC_4x4_1_ADDER_6x6_1_4x4_1_FA_3_HA2_M4         $D_HI
+  VEDIC_4x4_1_ADDER_6x6_1_4x4_1_N00567
+  VEDIC_4x4_1_ADDER_6x6_1_4x4_1_FA_3_HA2_N06579 $D_HI MbreakP           
M_VEDIC_4x4_1_ADDER_6x6_1_4x4_1_FA_3_HA2_M12        
+  VEDIC_4x4_1_ADDER_6x6_1_4x4_1_FA_3_HA2_N09404
+  VEDIC_4x4_1_ADDER_6x6_1_4x4_1_N00567 VEDIC_4x4_1_N03021 $D_HI MbreakP         
+   
M_VEDIC_4x4_1_ADDER_6x6_1_4x4_1_FA_3_HA2_M1        
+  VEDIC_4x4_1_ADDER_6x6_1_4x4_1_FA_3_HA2_N06579
+  VEDIC_4x4_1_ADDER_6x6_1_4x4_1_N00567
+  VEDIC_4x4_1_ADDER_6x6_1_4x4_1_FA_3_HA2_N06008 0 MbreakN           
M_VEDIC_4x4_1_ADDER_6x6_1_4x4_1_FA_3_HA2_M6         $D_HI
+  VEDIC_4x4_1_ADDER_6x6_1_4x4_1_FA_3_HA2_N06579
+  VEDIC_4x4_1_ADDER_6x6_1_4x4_1_FA_3_N01242 $D_HI MbreakP           
M_VEDIC_4x4_1_ADDER_6x6_1_4x4_1_FA_3_HA2_M13        
+  VEDIC_4x4_1_ADDER_6x6_1_4x4_1_FA_3_HA2_N09404
+  VEDIC_4x4_1_ADDER_6x6_1_4x4_1_FA_3_N00311 VEDIC_4x4_1_N03021 $D_HI MbreakP    
+        
M_VEDIC_4x4_1_ADDER_6x6_1_4x4_1_FA_3_HA2_M3        
+  VEDIC_4x4_1_ADDER_6x6_1_4x4_1_FA_3_N01242
+  VEDIC_4x4_1_ADDER_6x6_1_4x4_1_FA_3_HA2_N06579 0 0 MbreakN           
M_VEDIC_4x4_1_ADDER_6x6_1_4x4_1_FA_3_HA2_M16         $D_HI
+  VEDIC_4x4_1_ADDER_6x6_1_4x4_1_N00567
+  VEDIC_4x4_1_ADDER_6x6_1_4x4_1_FA_3_HA2_N11593 $D_HI MbreakP           
M_VEDIC_4x4_1_ADDER_6x6_1_4x4_1_FA_3_HA2_M8        
+  VEDIC_4x4_1_ADDER_6x6_1_4x4_1_FA_3_HA2_N09076
+  VEDIC_4x4_1_ADDER_6x6_1_4x4_1_FA_3_HA2_N11628 0 0 MbreakN           
M_VEDIC_4x4_1_ADDER_6x6_1_4x4_1_FA_3_HA2_M14         $D_HI
+  VEDIC_4x4_1_ADDER_6x6_1_4x4_1_FA_3_HA2_N11593
+  VEDIC_4x4_1_ADDER_6x6_1_4x4_1_FA_3_HA2_N09404 $D_HI MbreakP           
M_VEDIC_4x4_1_ADDER_6x6_1_4x4_1_FA_3_HA2_M17         $D_HI
+  VEDIC_4x4_1_ADDER_6x6_1_4x4_1_FA_3_N00311
+  VEDIC_4x4_1_ADDER_6x6_1_4x4_1_FA_3_HA2_N11628 $D_HI MbreakP           
M_VEDIC_4x4_1_ADDER_6x6_1_4x4_1_FA_3_HA2_M9         VEDIC_4x4_1_N03021
+  VEDIC_4x4_1_ADDER_6x6_1_4x4_1_N00567
+  VEDIC_4x4_1_ADDER_6x6_1_4x4_1_FA_3_HA2_N09191 0 MbreakN           
M_VEDIC_4x4_1_ADDER_6x6_1_4x4_1_FA_3_HA2_M15         $D_HI
+  VEDIC_4x4_1_ADDER_6x6_1_4x4_1_FA_3_HA2_N11628
+  VEDIC_4x4_1_ADDER_6x6_1_4x4_1_FA_3_HA2_N09404 $D_HI MbreakP           
M_VEDIC_4x4_1_ADDER_6x6_1_4x4_1_FA_3_HA2_M18        
+  VEDIC_4x4_1_ADDER_6x6_1_4x4_1_FA_3_HA2_N11593
+  VEDIC_4x4_1_ADDER_6x6_1_4x4_1_N00567 0 0 MbreakN           
M_VEDIC_4x4_1_ADDER_6x6_1_4x4_1_FA_3_HA2_M10         VEDIC_4x4_1_N03021
+  VEDIC_4x4_1_ADDER_6x6_1_4x4_1_FA_3_HA2_N11593
+  VEDIC_4x4_1_ADDER_6x6_1_4x4_1_FA_3_HA2_N09076 0 MbreakN           
M_VEDIC_4x4_1_ADDER_6x6_1_4x4_1_FA_3_HA2_M19        
+  VEDIC_4x4_1_ADDER_6x6_1_4x4_1_FA_3_HA2_N11628
+  VEDIC_4x4_1_ADDER_6x6_1_4x4_1_FA_3_N00311 0 0 MbreakN           
M_VEDIC_4x4_1_ADDER_6x6_1_4x4_1_FA_3_M3        
+  VEDIC_4x4_1_ADDER_6x6_1_4x4_1_FA_3_N01015
+  VEDIC_4x4_1_ADDER_6x6_1_4x4_1_FA_3_N01242
+  VEDIC_4x4_1_ADDER_6x6_1_4x4_1_FA_3_N00946 $D_HI MbreakP           
M_VEDIC_4x4_1_ADDER_6x6_1_4x4_1_FA_3_M2        
+  VEDIC_4x4_1_ADDER_6x6_1_4x4_1_FA_3_N00946
+  VEDIC_4x4_1_ADDER_6x6_1_4x4_1_FA_3_N01242 0 0 MbreakN           
M_VEDIC_4x4_1_ADDER_6x6_1_4x4_1_FA_3_M4         $D_HI
+  VEDIC_4x4_1_ADDER_6x6_1_4x4_1_FA_3_N01184
+  VEDIC_4x4_1_ADDER_6x6_1_4x4_1_FA_3_N01015 $D_HI MbreakP           
M_VEDIC_4x4_1_ADDER_6x6_1_4x4_1_FA_3_M5         $D_HI
+  VEDIC_4x4_1_ADDER_6x6_1_4x4_1_FA_3_N00946 VEDIC_4x4_1_ADDER_6x6_1_N00579 $D_HI
+  MbreakP           
M_VEDIC_4x4_1_ADDER_6x6_1_FA_1_M6         VEDIC_4x4_1_ADDER_6x6_1_N00597
+  VEDIC_4x4_1_ADDER_6x6_1_FA_1_N00946 0 0 MbreakN           
M_VEDIC_4x4_1_ADDER_6x6_1_FA_1_HA1_M11        
+  VEDIC_4x4_1_ADDER_6x6_1_FA_1_HA1_N09191 VEDIC_4x4_1_N02588 0 0 MbreakN        
+    
M_VEDIC_4x4_1_ADDER_6x6_1_FA_1_HA1_M5         $D_HI VEDIC_4x4_1_N02588
+  VEDIC_4x4_1_ADDER_6x6_1_FA_1_HA1_N06579 $D_HI MbreakP           
M_VEDIC_4x4_1_ADDER_6x6_1_FA_1_HA1_M2        
+  VEDIC_4x4_1_ADDER_6x6_1_FA_1_HA1_N06008 VEDIC_4x4_1_N02588 0 0 MbreakN        
+    
M_VEDIC_4x4_1_ADDER_6x6_1_FA_1_HA1_M4         $D_HI 0
+  VEDIC_4x4_1_ADDER_6x6_1_FA_1_HA1_N06579 $D_HI MbreakP           
M_VEDIC_4x4_1_ADDER_6x6_1_FA_1_HA1_M12        
+  VEDIC_4x4_1_ADDER_6x6_1_FA_1_HA1_N09404 0 VEDIC_4x4_1_ADDER_6x6_1_FA_1_N00311
+  $D_HI MbreakP           
M_VEDIC_4x4_1_ADDER_6x6_1_FA_1_HA1_M1        
+  VEDIC_4x4_1_ADDER_6x6_1_FA_1_HA1_N06579 0
+  VEDIC_4x4_1_ADDER_6x6_1_FA_1_HA1_N06008 0 MbreakN           
M_VEDIC_4x4_1_ADDER_6x6_1_FA_1_HA1_M6         $D_HI
+  VEDIC_4x4_1_ADDER_6x6_1_FA_1_HA1_N06579 VEDIC_4x4_1_ADDER_6x6_1_FA_1_N01184
+  $D_HI MbreakP           
M_VEDIC_4x4_1_ADDER_6x6_1_FA_1_HA1_M13        
+  VEDIC_4x4_1_ADDER_6x6_1_FA_1_HA1_N09404 VEDIC_4x4_1_N02588
+  VEDIC_4x4_1_ADDER_6x6_1_FA_1_N00311 $D_HI MbreakP           
M_VEDIC_4x4_1_ADDER_6x6_1_FA_1_HA1_M3        
+  VEDIC_4x4_1_ADDER_6x6_1_FA_1_N01184 VEDIC_4x4_1_ADDER_6x6_1_FA_1_HA1_N06579 0
+  0 MbreakN           
M_VEDIC_4x4_1_ADDER_6x6_1_FA_1_HA1_M16         $D_HI 0
+  VEDIC_4x4_1_ADDER_6x6_1_FA_1_HA1_N11593 $D_HI MbreakP           
M_VEDIC_4x4_1_ADDER_6x6_1_FA_1_HA1_M8        
+  VEDIC_4x4_1_ADDER_6x6_1_FA_1_HA1_N09076
+  VEDIC_4x4_1_ADDER_6x6_1_FA_1_HA1_N11628 0 0 MbreakN           
M_VEDIC_4x4_1_ADDER_6x6_1_FA_1_HA1_M14         $D_HI
+  VEDIC_4x4_1_ADDER_6x6_1_FA_1_HA1_N11593
+  VEDIC_4x4_1_ADDER_6x6_1_FA_1_HA1_N09404 $D_HI MbreakP           
M_VEDIC_4x4_1_ADDER_6x6_1_FA_1_HA1_M17         $D_HI VEDIC_4x4_1_N02588
+  VEDIC_4x4_1_ADDER_6x6_1_FA_1_HA1_N11628 $D_HI MbreakP           
M_VEDIC_4x4_1_ADDER_6x6_1_FA_1_HA1_M9        
+  VEDIC_4x4_1_ADDER_6x6_1_FA_1_N00311 0 VEDIC_4x4_1_ADDER_6x6_1_FA_1_HA1_N09191
+  0 MbreakN           
M_VEDIC_4x4_1_ADDER_6x6_1_FA_1_HA1_M15         $D_HI
+  VEDIC_4x4_1_ADDER_6x6_1_FA_1_HA1_N11628
+  VEDIC_4x4_1_ADDER_6x6_1_FA_1_HA1_N09404 $D_HI MbreakP           
M_VEDIC_4x4_1_ADDER_6x6_1_FA_1_HA1_M18        
+  VEDIC_4x4_1_ADDER_6x6_1_FA_1_HA1_N11593 0 0 0 MbreakN           
M_VEDIC_4x4_1_ADDER_6x6_1_FA_1_HA1_M10        
+  VEDIC_4x4_1_ADDER_6x6_1_FA_1_N00311 VEDIC_4x4_1_ADDER_6x6_1_FA_1_HA1_N11593
+  VEDIC_4x4_1_ADDER_6x6_1_FA_1_HA1_N09076 0 MbreakN           
M_VEDIC_4x4_1_ADDER_6x6_1_FA_1_HA1_M19        
+  VEDIC_4x4_1_ADDER_6x6_1_FA_1_HA1_N11628 VEDIC_4x4_1_N02588 0 0 MbreakN        
+    
M_VEDIC_4x4_1_ADDER_6x6_1_FA_1_M1         VEDIC_4x4_1_ADDER_6x6_1_FA_1_N00946
+  VEDIC_4x4_1_ADDER_6x6_1_FA_1_N01184 0 0 MbreakN           
M_VEDIC_4x4_1_ADDER_6x6_1_FA_1_HA2_M11        
+  VEDIC_4x4_1_ADDER_6x6_1_FA_1_HA2_N09191 VEDIC_4x4_1_ADDER_6x6_1_FA_1_N00311 0
+  0 MbreakN           
M_VEDIC_4x4_1_ADDER_6x6_1_FA_1_HA2_M5         $D_HI
+  VEDIC_4x4_1_ADDER_6x6_1_FA_1_N00311 VEDIC_4x4_1_ADDER_6x6_1_FA_1_HA2_N06579
+  $D_HI MbreakP           
M_VEDIC_4x4_1_ADDER_6x6_1_FA_1_HA2_M2        
+  VEDIC_4x4_1_ADDER_6x6_1_FA_1_HA2_N06008 VEDIC_4x4_1_ADDER_6x6_1_FA_1_N00311 0
+  0 MbreakN           
M_VEDIC_4x4_1_ADDER_6x6_1_FA_1_HA2_M4         $D_HI
+  VEDIC_4x4_1_ADDER_6x6_1_N00579 VEDIC_4x4_1_ADDER_6x6_1_FA_1_HA2_N06579 $D_HI
+  MbreakP           
M_VEDIC_4x4_1_ADDER_6x6_1_FA_1_HA2_M12        
+  VEDIC_4x4_1_ADDER_6x6_1_FA_1_HA2_N09404 VEDIC_4x4_1_ADDER_6x6_1_N00579
+  VEDIC_4x4_1_N03032 $D_HI MbreakP           
M_VEDIC_4x4_1_ADDER_6x6_1_FA_1_HA2_M1        
+  VEDIC_4x4_1_ADDER_6x6_1_FA_1_HA2_N06579 VEDIC_4x4_1_ADDER_6x6_1_N00579
+  VEDIC_4x4_1_ADDER_6x6_1_FA_1_HA2_N06008 0 MbreakN           
M_VEDIC_4x4_1_ADDER_6x6_1_FA_1_HA2_M6         $D_HI
+  VEDIC_4x4_1_ADDER_6x6_1_FA_1_HA2_N06579 VEDIC_4x4_1_ADDER_6x6_1_FA_1_N01242
+  $D_HI MbreakP           
M_VEDIC_4x4_1_ADDER_6x6_1_FA_1_HA2_M13        
+  VEDIC_4x4_1_ADDER_6x6_1_FA_1_HA2_N09404 VEDIC_4x4_1_ADDER_6x6_1_FA_1_N00311
+  VEDIC_4x4_1_N03032 $D_HI MbreakP           
M_VEDIC_4x4_1_ADDER_6x6_1_FA_1_HA2_M3        
+  VEDIC_4x4_1_ADDER_6x6_1_FA_1_N01242 VEDIC_4x4_1_ADDER_6x6_1_FA_1_HA2_N06579 0
+  0 MbreakN           
M_VEDIC_4x4_1_ADDER_6x6_1_FA_1_HA2_M16         $D_HI
+  VEDIC_4x4_1_ADDER_6x6_1_N00579 VEDIC_4x4_1_ADDER_6x6_1_FA_1_HA2_N11593 $D_HI
+  MbreakP           
M_VEDIC_4x4_1_ADDER_6x6_1_FA_1_HA2_M8        
+  VEDIC_4x4_1_ADDER_6x6_1_FA_1_HA2_N09076
+  VEDIC_4x4_1_ADDER_6x6_1_FA_1_HA2_N11628 0 0 MbreakN           
M_VEDIC_4x4_1_ADDER_6x6_1_FA_1_HA2_M14         $D_HI
+  VEDIC_4x4_1_ADDER_6x6_1_FA_1_HA2_N11593
+  VEDIC_4x4_1_ADDER_6x6_1_FA_1_HA2_N09404 $D_HI MbreakP           
M_VEDIC_4x4_1_ADDER_6x6_1_FA_1_HA2_M17         $D_HI
+  VEDIC_4x4_1_ADDER_6x6_1_FA_1_N00311 VEDIC_4x4_1_ADDER_6x6_1_FA_1_HA2_N11628
+  $D_HI MbreakP           
M_VEDIC_4x4_1_ADDER_6x6_1_FA_1_HA2_M9         VEDIC_4x4_1_N03032
+  VEDIC_4x4_1_ADDER_6x6_1_N00579 VEDIC_4x4_1_ADDER_6x6_1_FA_1_HA2_N09191 0
+  MbreakN           
M_VEDIC_4x4_1_ADDER_6x6_1_FA_1_HA2_M15         $D_HI
+  VEDIC_4x4_1_ADDER_6x6_1_FA_1_HA2_N11628
+  VEDIC_4x4_1_ADDER_6x6_1_FA_1_HA2_N09404 $D_HI MbreakP           
M_VEDIC_4x4_1_ADDER_6x6_1_FA_1_HA2_M18        
+  VEDIC_4x4_1_ADDER_6x6_1_FA_1_HA2_N11593 VEDIC_4x4_1_ADDER_6x6_1_N00579 0 0
+  MbreakN           
M_VEDIC_4x4_1_ADDER_6x6_1_FA_1_HA2_M10         VEDIC_4x4_1_N03032
+  VEDIC_4x4_1_ADDER_6x6_1_FA_1_HA2_N11593
+  VEDIC_4x4_1_ADDER_6x6_1_FA_1_HA2_N09076 0 MbreakN           
M_VEDIC_4x4_1_ADDER_6x6_1_FA_1_HA2_M19        
+  VEDIC_4x4_1_ADDER_6x6_1_FA_1_HA2_N11628 VEDIC_4x4_1_ADDER_6x6_1_FA_1_N00311 0
+  0 MbreakN           
M_VEDIC_4x4_1_ADDER_6x6_1_FA_1_M3         VEDIC_4x4_1_ADDER_6x6_1_FA_1_N01015
+  VEDIC_4x4_1_ADDER_6x6_1_FA_1_N01242 VEDIC_4x4_1_ADDER_6x6_1_FA_1_N00946 $D_HI
+  MbreakP           
M_VEDIC_4x4_1_ADDER_6x6_1_FA_1_M2         VEDIC_4x4_1_ADDER_6x6_1_FA_1_N00946
+  VEDIC_4x4_1_ADDER_6x6_1_FA_1_N01242 0 0 MbreakN           
M_VEDIC_4x4_1_ADDER_6x6_1_FA_1_M4         $D_HI
+  VEDIC_4x4_1_ADDER_6x6_1_FA_1_N01184 VEDIC_4x4_1_ADDER_6x6_1_FA_1_N01015 $D_HI
+  MbreakP           
M_VEDIC_4x4_1_ADDER_6x6_1_FA_1_M5         $D_HI
+  VEDIC_4x4_1_ADDER_6x6_1_FA_1_N00946 VEDIC_4x4_1_ADDER_6x6_1_N00597 $D_HI
+  MbreakP           
M_VEDIC_4x4_1_ADDER_6x6_1_FA_2_M6         VEDIC_4x4_1_N05975
+  VEDIC_4x4_1_ADDER_6x6_1_FA_2_N00946 0 0 MbreakN           
M_VEDIC_4x4_1_ADDER_6x6_1_FA_2_HA1_M11        
+  VEDIC_4x4_1_ADDER_6x6_1_FA_2_HA1_N09191 VEDIC_4x4_1_N02608 0 0 MbreakN        
+    
M_VEDIC_4x4_1_ADDER_6x6_1_FA_2_HA1_M5         $D_HI VEDIC_4x4_1_N02608
+  VEDIC_4x4_1_ADDER_6x6_1_FA_2_HA1_N06579 $D_HI MbreakP           
M_VEDIC_4x4_1_ADDER_6x6_1_FA_2_HA1_M2        
+  VEDIC_4x4_1_ADDER_6x6_1_FA_2_HA1_N06008 VEDIC_4x4_1_N02608 0 0 MbreakN        
+    
M_VEDIC_4x4_1_ADDER_6x6_1_FA_2_HA1_M4         $D_HI 0
+  VEDIC_4x4_1_ADDER_6x6_1_FA_2_HA1_N06579 $D_HI MbreakP           
M_VEDIC_4x4_1_ADDER_6x6_1_FA_2_HA1_M12        
+  VEDIC_4x4_1_ADDER_6x6_1_FA_2_HA1_N09404 0 VEDIC_4x4_1_ADDER_6x6_1_FA_2_N00311
+  $D_HI MbreakP           
M_VEDIC_4x4_1_ADDER_6x6_1_FA_2_HA1_M1        
+  VEDIC_4x4_1_ADDER_6x6_1_FA_2_HA1_N06579 0
+  VEDIC_4x4_1_ADDER_6x6_1_FA_2_HA1_N06008 0 MbreakN           
M_VEDIC_4x4_1_ADDER_6x6_1_FA_2_HA1_M6         $D_HI
+  VEDIC_4x4_1_ADDER_6x6_1_FA_2_HA1_N06579 VEDIC_4x4_1_ADDER_6x6_1_FA_2_N01184
+  $D_HI MbreakP           
M_VEDIC_4x4_1_ADDER_6x6_1_FA_2_HA1_M13        
+  VEDIC_4x4_1_ADDER_6x6_1_FA_2_HA1_N09404 VEDIC_4x4_1_N02608
+  VEDIC_4x4_1_ADDER_6x6_1_FA_2_N00311 $D_HI MbreakP           
M_VEDIC_4x4_1_ADDER_6x6_1_FA_2_HA1_M3        
+  VEDIC_4x4_1_ADDER_6x6_1_FA_2_N01184 VEDIC_4x4_1_ADDER_6x6_1_FA_2_HA1_N06579 0
+  0 MbreakN           
M_VEDIC_4x4_1_ADDER_6x6_1_FA_2_HA1_M16         $D_HI 0
+  VEDIC_4x4_1_ADDER_6x6_1_FA_2_HA1_N11593 $D_HI MbreakP           
M_VEDIC_4x4_1_ADDER_6x6_1_FA_2_HA1_M8        
+  VEDIC_4x4_1_ADDER_6x6_1_FA_2_HA1_N09076
+  VEDIC_4x4_1_ADDER_6x6_1_FA_2_HA1_N11628 0 0 MbreakN           
M_VEDIC_4x4_1_ADDER_6x6_1_FA_2_HA1_M14         $D_HI
+  VEDIC_4x4_1_ADDER_6x6_1_FA_2_HA1_N11593
+  VEDIC_4x4_1_ADDER_6x6_1_FA_2_HA1_N09404 $D_HI MbreakP           
M_VEDIC_4x4_1_ADDER_6x6_1_FA_2_HA1_M17         $D_HI VEDIC_4x4_1_N02608
+  VEDIC_4x4_1_ADDER_6x6_1_FA_2_HA1_N11628 $D_HI MbreakP           
M_VEDIC_4x4_1_ADDER_6x6_1_FA_2_HA1_M9        
+  VEDIC_4x4_1_ADDER_6x6_1_FA_2_N00311 0 VEDIC_4x4_1_ADDER_6x6_1_FA_2_HA1_N09191
+  0 MbreakN           
M_VEDIC_4x4_1_ADDER_6x6_1_FA_2_HA1_M15         $D_HI
+  VEDIC_4x4_1_ADDER_6x6_1_FA_2_HA1_N11628
+  VEDIC_4x4_1_ADDER_6x6_1_FA_2_HA1_N09404 $D_HI MbreakP           
M_VEDIC_4x4_1_ADDER_6x6_1_FA_2_HA1_M18        
+  VEDIC_4x4_1_ADDER_6x6_1_FA_2_HA1_N11593 0 0 0 MbreakN           
M_VEDIC_4x4_1_ADDER_6x6_1_FA_2_HA1_M10        
+  VEDIC_4x4_1_ADDER_6x6_1_FA_2_N00311 VEDIC_4x4_1_ADDER_6x6_1_FA_2_HA1_N11593
+  VEDIC_4x4_1_ADDER_6x6_1_FA_2_HA1_N09076 0 MbreakN           
M_VEDIC_4x4_1_ADDER_6x6_1_FA_2_HA1_M19        
+  VEDIC_4x4_1_ADDER_6x6_1_FA_2_HA1_N11628 VEDIC_4x4_1_N02608 0 0 MbreakN        
+    
M_VEDIC_4x4_1_ADDER_6x6_1_FA_2_M1         VEDIC_4x4_1_ADDER_6x6_1_FA_2_N00946
+  VEDIC_4x4_1_ADDER_6x6_1_FA_2_N01184 0 0 MbreakN           
M_VEDIC_4x4_1_ADDER_6x6_1_FA_2_HA2_M11        
+  VEDIC_4x4_1_ADDER_6x6_1_FA_2_HA2_N09191 VEDIC_4x4_1_ADDER_6x6_1_FA_2_N00311 0
+  0 MbreakN           
M_VEDIC_4x4_1_ADDER_6x6_1_FA_2_HA2_M5         $D_HI
+  VEDIC_4x4_1_ADDER_6x6_1_FA_2_N00311 VEDIC_4x4_1_ADDER_6x6_1_FA_2_HA2_N06579
+  $D_HI MbreakP           
M_VEDIC_4x4_1_ADDER_6x6_1_FA_2_HA2_M2        
+  VEDIC_4x4_1_ADDER_6x6_1_FA_2_HA2_N06008 VEDIC_4x4_1_ADDER_6x6_1_FA_2_N00311 0
+  0 MbreakN           
M_VEDIC_4x4_1_ADDER_6x6_1_FA_2_HA2_M4         $D_HI
+  VEDIC_4x4_1_ADDER_6x6_1_N00597 VEDIC_4x4_1_ADDER_6x6_1_FA_2_HA2_N06579 $D_HI
+  MbreakP           
M_VEDIC_4x4_1_ADDER_6x6_1_FA_2_HA2_M12        
+  VEDIC_4x4_1_ADDER_6x6_1_FA_2_HA2_N09404 VEDIC_4x4_1_ADDER_6x6_1_N00597
+  VEDIC_4x4_1_N03043 $D_HI MbreakP           
M_VEDIC_4x4_1_ADDER_6x6_1_FA_2_HA2_M1        
+  VEDIC_4x4_1_ADDER_6x6_1_FA_2_HA2_N06579 VEDIC_4x4_1_ADDER_6x6_1_N00597
+  VEDIC_4x4_1_ADDER_6x6_1_FA_2_HA2_N06008 0 MbreakN           
M_VEDIC_4x4_1_ADDER_6x6_1_FA_2_HA2_M6         $D_HI
+  VEDIC_4x4_1_ADDER_6x6_1_FA_2_HA2_N06579 VEDIC_4x4_1_ADDER_6x6_1_FA_2_N01242
+  $D_HI MbreakP           
M_VEDIC_4x4_1_ADDER_6x6_1_FA_2_HA2_M13        
+  VEDIC_4x4_1_ADDER_6x6_1_FA_2_HA2_N09404 VEDIC_4x4_1_ADDER_6x6_1_FA_2_N00311
+  VEDIC_4x4_1_N03043 $D_HI MbreakP           
M_VEDIC_4x4_1_ADDER_6x6_1_FA_2_HA2_M3        
+  VEDIC_4x4_1_ADDER_6x6_1_FA_2_N01242 VEDIC_4x4_1_ADDER_6x6_1_FA_2_HA2_N06579 0
+  0 MbreakN           
M_VEDIC_4x4_1_ADDER_6x6_1_FA_2_HA2_M16         $D_HI
+  VEDIC_4x4_1_ADDER_6x6_1_N00597 VEDIC_4x4_1_ADDER_6x6_1_FA_2_HA2_N11593 $D_HI
+  MbreakP           
M_VEDIC_4x4_1_ADDER_6x6_1_FA_2_HA2_M8        
+  VEDIC_4x4_1_ADDER_6x6_1_FA_2_HA2_N09076
+  VEDIC_4x4_1_ADDER_6x6_1_FA_2_HA2_N11628 0 0 MbreakN           
M_VEDIC_4x4_1_ADDER_6x6_1_FA_2_HA2_M14         $D_HI
+  VEDIC_4x4_1_ADDER_6x6_1_FA_2_HA2_N11593
+  VEDIC_4x4_1_ADDER_6x6_1_FA_2_HA2_N09404 $D_HI MbreakP           
M_VEDIC_4x4_1_ADDER_6x6_1_FA_2_HA2_M17         $D_HI
+  VEDIC_4x4_1_ADDER_6x6_1_FA_2_N00311 VEDIC_4x4_1_ADDER_6x6_1_FA_2_HA2_N11628
+  $D_HI MbreakP           
M_VEDIC_4x4_1_ADDER_6x6_1_FA_2_HA2_M9         VEDIC_4x4_1_N03043
+  VEDIC_4x4_1_ADDER_6x6_1_N00597 VEDIC_4x4_1_ADDER_6x6_1_FA_2_HA2_N09191 0
+  MbreakN           
M_VEDIC_4x4_1_ADDER_6x6_1_FA_2_HA2_M15         $D_HI
+  VEDIC_4x4_1_ADDER_6x6_1_FA_2_HA2_N11628
+  VEDIC_4x4_1_ADDER_6x6_1_FA_2_HA2_N09404 $D_HI MbreakP           
M_VEDIC_4x4_1_ADDER_6x6_1_FA_2_HA2_M18        
+  VEDIC_4x4_1_ADDER_6x6_1_FA_2_HA2_N11593 VEDIC_4x4_1_ADDER_6x6_1_N00597 0 0
+  MbreakN           
M_VEDIC_4x4_1_ADDER_6x6_1_FA_2_HA2_M10         VEDIC_4x4_1_N03043
+  VEDIC_4x4_1_ADDER_6x6_1_FA_2_HA2_N11593
+  VEDIC_4x4_1_ADDER_6x6_1_FA_2_HA2_N09076 0 MbreakN           
M_VEDIC_4x4_1_ADDER_6x6_1_FA_2_HA2_M19        
+  VEDIC_4x4_1_ADDER_6x6_1_FA_2_HA2_N11628 VEDIC_4x4_1_ADDER_6x6_1_FA_2_N00311 0
+  0 MbreakN           
M_VEDIC_4x4_1_ADDER_6x6_1_FA_2_M3         VEDIC_4x4_1_ADDER_6x6_1_FA_2_N01015
+  VEDIC_4x4_1_ADDER_6x6_1_FA_2_N01242 VEDIC_4x4_1_ADDER_6x6_1_FA_2_N00946 $D_HI
+  MbreakP           
M_VEDIC_4x4_1_ADDER_6x6_1_FA_2_M2         VEDIC_4x4_1_ADDER_6x6_1_FA_2_N00946
+  VEDIC_4x4_1_ADDER_6x6_1_FA_2_N01242 0 0 MbreakN           
M_VEDIC_4x4_1_ADDER_6x6_1_FA_2_M4         $D_HI
+  VEDIC_4x4_1_ADDER_6x6_1_FA_2_N01184 VEDIC_4x4_1_ADDER_6x6_1_FA_2_N01015 $D_HI
+  MbreakP           
M_VEDIC_4x4_1_ADDER_6x6_1_FA_2_M5         $D_HI
+  VEDIC_4x4_1_ADDER_6x6_1_FA_2_N00946 VEDIC_4x4_1_N05975 $D_HI MbreakP          
+  
M_VEDIC_4x4_1_ADDER_4X4_1_HA_1_M11         VEDIC_4x4_1_ADDER_4X4_1_HA_1_N09191
+  VEDIC_4x4_1_N00770 0 0 MbreakN           
M_VEDIC_4x4_1_ADDER_4X4_1_HA_1_M5         $D_HI VEDIC_4x4_1_N00770
+  VEDIC_4x4_1_ADDER_4X4_1_HA_1_N06579 $D_HI MbreakP           
M_VEDIC_4x4_1_ADDER_4X4_1_HA_1_M2         VEDIC_4x4_1_ADDER_4X4_1_HA_1_N06008
+  VEDIC_4x4_1_N00770 0 0 MbreakN           
M_VEDIC_4x4_1_ADDER_4X4_1_HA_1_M4         $D_HI VEDIC_4x4_1_N00459
+  VEDIC_4x4_1_ADDER_4X4_1_HA_1_N06579 $D_HI MbreakP           
M_VEDIC_4x4_1_ADDER_4X4_1_HA_1_M12         VEDIC_4x4_1_ADDER_4X4_1_HA_1_N09404
+  VEDIC_4x4_1_N00459 VEDIC_4x4_1_N02786 $D_HI MbreakP           
M_VEDIC_4x4_1_ADDER_4X4_1_HA_1_M1         VEDIC_4x4_1_ADDER_4X4_1_HA_1_N06579
+  VEDIC_4x4_1_N00459 VEDIC_4x4_1_ADDER_4X4_1_HA_1_N06008 0 MbreakN           
M_VEDIC_4x4_1_ADDER_4X4_1_HA_1_M6         $D_HI
+  VEDIC_4x4_1_ADDER_4X4_1_HA_1_N06579 VEDIC_4x4_1_ADDER_4X4_1_N00531 $D_HI
+  MbreakP           
M_VEDIC_4x4_1_ADDER_4X4_1_HA_1_M13         VEDIC_4x4_1_ADDER_4X4_1_HA_1_N09404
+  VEDIC_4x4_1_N00770 VEDIC_4x4_1_N02786 $D_HI MbreakP           
M_VEDIC_4x4_1_ADDER_4X4_1_HA_1_M3         VEDIC_4x4_1_ADDER_4X4_1_N00531
+  VEDIC_4x4_1_ADDER_4X4_1_HA_1_N06579 0 0 MbreakN           
M_VEDIC_4x4_1_ADDER_4X4_1_HA_1_M16         $D_HI VEDIC_4x4_1_N00459
+  VEDIC_4x4_1_ADDER_4X4_1_HA_1_N11593 $D_HI MbreakP           
M_VEDIC_4x4_1_ADDER_4X4_1_HA_1_M8         VEDIC_4x4_1_ADDER_4X4_1_HA_1_N09076
+  VEDIC_4x4_1_ADDER_4X4_1_HA_1_N11628 0 0 MbreakN           
M_VEDIC_4x4_1_ADDER_4X4_1_HA_1_M14         $D_HI
+  VEDIC_4x4_1_ADDER_4X4_1_HA_1_N11593 VEDIC_4x4_1_ADDER_4X4_1_HA_1_N09404 $D_HI
+  MbreakP           
M_VEDIC_4x4_1_ADDER_4X4_1_HA_1_M17         $D_HI VEDIC_4x4_1_N00770
+  VEDIC_4x4_1_ADDER_4X4_1_HA_1_N11628 $D_HI MbreakP           
M_VEDIC_4x4_1_ADDER_4X4_1_HA_1_M9         VEDIC_4x4_1_N02786 VEDIC_4x4_1_N00459
+  VEDIC_4x4_1_ADDER_4X4_1_HA_1_N09191 0 MbreakN           
M_VEDIC_4x4_1_ADDER_4X4_1_HA_1_M15         $D_HI
+  VEDIC_4x4_1_ADDER_4X4_1_HA_1_N11628 VEDIC_4x4_1_ADDER_4X4_1_HA_1_N09404 $D_HI
+  MbreakP           
M_VEDIC_4x4_1_ADDER_4X4_1_HA_1_M18         VEDIC_4x4_1_ADDER_4X4_1_HA_1_N11593
+  VEDIC_4x4_1_N00459 0 0 MbreakN           
M_VEDIC_4x4_1_ADDER_4X4_1_HA_1_M10         VEDIC_4x4_1_N02786
+  VEDIC_4x4_1_ADDER_4X4_1_HA_1_N11593 VEDIC_4x4_1_ADDER_4X4_1_HA_1_N09076 0
+  MbreakN           
M_VEDIC_4x4_1_ADDER_4X4_1_HA_1_M19         VEDIC_4x4_1_ADDER_4X4_1_HA_1_N11628
+  VEDIC_4x4_1_N00770 0 0 MbreakN           
M_VEDIC_4x4_1_ADDER_4X4_1_FA_1_M6         VEDIC_4x4_1_ADDER_4X4_1_N00549
+  VEDIC_4x4_1_ADDER_4X4_1_FA_1_N00946 0 0 MbreakN           
M_VEDIC_4x4_1_ADDER_4X4_1_FA_1_HA1_M11        
+  VEDIC_4x4_1_ADDER_4X4_1_FA_1_HA1_N09191 VEDIC_4x4_1_N00781 0 0 MbreakN        
+    
M_VEDIC_4x4_1_ADDER_4X4_1_FA_1_HA1_M5         $D_HI VEDIC_4x4_1_N00781
+  VEDIC_4x4_1_ADDER_4X4_1_FA_1_HA1_N06579 $D_HI MbreakP           
M_VEDIC_4x4_1_ADDER_4X4_1_FA_1_HA1_M2        
+  VEDIC_4x4_1_ADDER_4X4_1_FA_1_HA1_N06008 VEDIC_4x4_1_N00781 0 0 MbreakN        
+    
M_VEDIC_4x4_1_ADDER_4X4_1_FA_1_HA1_M4         $D_HI VEDIC_4x4_1_N00477
+  VEDIC_4x4_1_ADDER_4X4_1_FA_1_HA1_N06579 $D_HI MbreakP           
M_VEDIC_4x4_1_ADDER_4X4_1_FA_1_HA1_M12        
+  VEDIC_4x4_1_ADDER_4X4_1_FA_1_HA1_N09404 VEDIC_4x4_1_N00477
+  VEDIC_4x4_1_ADDER_4X4_1_FA_1_N00311 $D_HI MbreakP           
M_VEDIC_4x4_1_ADDER_4X4_1_FA_1_HA1_M1        
+  VEDIC_4x4_1_ADDER_4X4_1_FA_1_HA1_N06579 VEDIC_4x4_1_N00477
+  VEDIC_4x4_1_ADDER_4X4_1_FA_1_HA1_N06008 0 MbreakN           
M_VEDIC_4x4_1_ADDER_4X4_1_FA_1_HA1_M6         $D_HI
+  VEDIC_4x4_1_ADDER_4X4_1_FA_1_HA1_N06579 VEDIC_4x4_1_ADDER_4X4_1_FA_1_N01184
+  $D_HI MbreakP           
M_VEDIC_4x4_1_ADDER_4X4_1_FA_1_HA1_M13        
+  VEDIC_4x4_1_ADDER_4X4_1_FA_1_HA1_N09404 VEDIC_4x4_1_N00781
+  VEDIC_4x4_1_ADDER_4X4_1_FA_1_N00311 $D_HI MbreakP           
M_VEDIC_4x4_1_ADDER_4X4_1_FA_1_HA1_M3        
+  VEDIC_4x4_1_ADDER_4X4_1_FA_1_N01184 VEDIC_4x4_1_ADDER_4X4_1_FA_1_HA1_N06579 0
+  0 MbreakN           
M_VEDIC_4x4_1_ADDER_4X4_1_FA_1_HA1_M16         $D_HI VEDIC_4x4_1_N00477
+  VEDIC_4x4_1_ADDER_4X4_1_FA_1_HA1_N11593 $D_HI MbreakP           
M_VEDIC_4x4_1_ADDER_4X4_1_FA_1_HA1_M8        
+  VEDIC_4x4_1_ADDER_4X4_1_FA_1_HA1_N09076
+  VEDIC_4x4_1_ADDER_4X4_1_FA_1_HA1_N11628 0 0 MbreakN           
M_VEDIC_4x4_1_ADDER_4X4_1_FA_1_HA1_M14         $D_HI
+  VEDIC_4x4_1_ADDER_4X4_1_FA_1_HA1_N11593
+  VEDIC_4x4_1_ADDER_4X4_1_FA_1_HA1_N09404 $D_HI MbreakP           
M_VEDIC_4x4_1_ADDER_4X4_1_FA_1_HA1_M17         $D_HI VEDIC_4x4_1_N00781
+  VEDIC_4x4_1_ADDER_4X4_1_FA_1_HA1_N11628 $D_HI MbreakP           
M_VEDIC_4x4_1_ADDER_4X4_1_FA_1_HA1_M9        
+  VEDIC_4x4_1_ADDER_4X4_1_FA_1_N00311 VEDIC_4x4_1_N00477
+  VEDIC_4x4_1_ADDER_4X4_1_FA_1_HA1_N09191 0 MbreakN           
M_VEDIC_4x4_1_ADDER_4X4_1_FA_1_HA1_M15         $D_HI
+  VEDIC_4x4_1_ADDER_4X4_1_FA_1_HA1_N11628
+  VEDIC_4x4_1_ADDER_4X4_1_FA_1_HA1_N09404 $D_HI MbreakP           
M_VEDIC_4x4_1_ADDER_4X4_1_FA_1_HA1_M18        
+  VEDIC_4x4_1_ADDER_4X4_1_FA_1_HA1_N11593 VEDIC_4x4_1_N00477 0 0 MbreakN        
+    
M_VEDIC_4x4_1_ADDER_4X4_1_FA_1_HA1_M10        
+  VEDIC_4x4_1_ADDER_4X4_1_FA_1_N00311 VEDIC_4x4_1_ADDER_4X4_1_FA_1_HA1_N11593
+  VEDIC_4x4_1_ADDER_4X4_1_FA_1_HA1_N09076 0 MbreakN           
M_VEDIC_4x4_1_ADDER_4X4_1_FA_1_HA1_M19        
+  VEDIC_4x4_1_ADDER_4X4_1_FA_1_HA1_N11628 VEDIC_4x4_1_N00781 0 0 MbreakN        
+    
M_VEDIC_4x4_1_ADDER_4X4_1_FA_1_M1         VEDIC_4x4_1_ADDER_4X4_1_FA_1_N00946
+  VEDIC_4x4_1_ADDER_4X4_1_FA_1_N01184 0 0 MbreakN           
M_VEDIC_4x4_1_ADDER_4X4_1_FA_1_HA2_M11        
+  VEDIC_4x4_1_ADDER_4X4_1_FA_1_HA2_N09191 VEDIC_4x4_1_ADDER_4X4_1_FA_1_N00311 0
+  0 MbreakN           
M_VEDIC_4x4_1_ADDER_4X4_1_FA_1_HA2_M5         $D_HI
+  VEDIC_4x4_1_ADDER_4X4_1_FA_1_N00311 VEDIC_4x4_1_ADDER_4X4_1_FA_1_HA2_N06579
+  $D_HI MbreakP           
M_VEDIC_4x4_1_ADDER_4X4_1_FA_1_HA2_M2        
+  VEDIC_4x4_1_ADDER_4X4_1_FA_1_HA2_N06008 VEDIC_4x4_1_ADDER_4X4_1_FA_1_N00311 0
+  0 MbreakN           
M_VEDIC_4x4_1_ADDER_4X4_1_FA_1_HA2_M4         $D_HI
+  VEDIC_4x4_1_ADDER_4X4_1_N00531 VEDIC_4x4_1_ADDER_4X4_1_FA_1_HA2_N06579 $D_HI
+  MbreakP           
M_VEDIC_4x4_1_ADDER_4X4_1_FA_1_HA2_M12        
+  VEDIC_4x4_1_ADDER_4X4_1_FA_1_HA2_N09404 VEDIC_4x4_1_ADDER_4X4_1_N00531
+  VEDIC_4x4_1_N02880 $D_HI MbreakP           
M_VEDIC_4x4_1_ADDER_4X4_1_FA_1_HA2_M1        
+  VEDIC_4x4_1_ADDER_4X4_1_FA_1_HA2_N06579 VEDIC_4x4_1_ADDER_4X4_1_N00531
+  VEDIC_4x4_1_ADDER_4X4_1_FA_1_HA2_N06008 0 MbreakN           
M_VEDIC_4x4_1_ADDER_4X4_1_FA_1_HA2_M6         $D_HI
+  VEDIC_4x4_1_ADDER_4X4_1_FA_1_HA2_N06579 VEDIC_4x4_1_ADDER_4X4_1_FA_1_N01242
+  $D_HI MbreakP           
M_VEDIC_4x4_1_ADDER_4X4_1_FA_1_HA2_M13        
+  VEDIC_4x4_1_ADDER_4X4_1_FA_1_HA2_N09404 VEDIC_4x4_1_ADDER_4X4_1_FA_1_N00311
+  VEDIC_4x4_1_N02880 $D_HI MbreakP           
M_VEDIC_4x4_1_ADDER_4X4_1_FA_1_HA2_M3        
+  VEDIC_4x4_1_ADDER_4X4_1_FA_1_N01242 VEDIC_4x4_1_ADDER_4X4_1_FA_1_HA2_N06579 0
+  0 MbreakN           
M_VEDIC_4x4_1_ADDER_4X4_1_FA_1_HA2_M16         $D_HI
+  VEDIC_4x4_1_ADDER_4X4_1_N00531 VEDIC_4x4_1_ADDER_4X4_1_FA_1_HA2_N11593 $D_HI
+  MbreakP           
M_VEDIC_4x4_1_ADDER_4X4_1_FA_1_HA2_M8        
+  VEDIC_4x4_1_ADDER_4X4_1_FA_1_HA2_N09076
+  VEDIC_4x4_1_ADDER_4X4_1_FA_1_HA2_N11628 0 0 MbreakN           
M_VEDIC_4x4_1_ADDER_4X4_1_FA_1_HA2_M14         $D_HI
+  VEDIC_4x4_1_ADDER_4X4_1_FA_1_HA2_N11593
+  VEDIC_4x4_1_ADDER_4X4_1_FA_1_HA2_N09404 $D_HI MbreakP           
M_VEDIC_4x4_1_ADDER_4X4_1_FA_1_HA2_M17         $D_HI
+  VEDIC_4x4_1_ADDER_4X4_1_FA_1_N00311 VEDIC_4x4_1_ADDER_4X4_1_FA_1_HA2_N11628
+  $D_HI MbreakP           
M_VEDIC_4x4_1_ADDER_4X4_1_FA_1_HA2_M9         VEDIC_4x4_1_N02880
+  VEDIC_4x4_1_ADDER_4X4_1_N00531 VEDIC_4x4_1_ADDER_4X4_1_FA_1_HA2_N09191 0
+  MbreakN           
M_VEDIC_4x4_1_ADDER_4X4_1_FA_1_HA2_M15         $D_HI
+  VEDIC_4x4_1_ADDER_4X4_1_FA_1_HA2_N11628
+  VEDIC_4x4_1_ADDER_4X4_1_FA_1_HA2_N09404 $D_HI MbreakP           
M_VEDIC_4x4_1_ADDER_4X4_1_FA_1_HA2_M18        
+  VEDIC_4x4_1_ADDER_4X4_1_FA_1_HA2_N11593 VEDIC_4x4_1_ADDER_4X4_1_N00531 0 0
+  MbreakN           
M_VEDIC_4x4_1_ADDER_4X4_1_FA_1_HA2_M10         VEDIC_4x4_1_N02880
+  VEDIC_4x4_1_ADDER_4X4_1_FA_1_HA2_N11593
+  VEDIC_4x4_1_ADDER_4X4_1_FA_1_HA2_N09076 0 MbreakN           
M_VEDIC_4x4_1_ADDER_4X4_1_FA_1_HA2_M19        
+  VEDIC_4x4_1_ADDER_4X4_1_FA_1_HA2_N11628 VEDIC_4x4_1_ADDER_4X4_1_FA_1_N00311 0
+  0 MbreakN           
M_VEDIC_4x4_1_ADDER_4X4_1_FA_1_M3         VEDIC_4x4_1_ADDER_4X4_1_FA_1_N01015
+  VEDIC_4x4_1_ADDER_4X4_1_FA_1_N01242 VEDIC_4x4_1_ADDER_4X4_1_FA_1_N00946 $D_HI
+  MbreakP           
M_VEDIC_4x4_1_ADDER_4X4_1_FA_1_M2         VEDIC_4x4_1_ADDER_4X4_1_FA_1_N00946
+  VEDIC_4x4_1_ADDER_4X4_1_FA_1_N01242 0 0 MbreakN           
M_VEDIC_4x4_1_ADDER_4X4_1_FA_1_M4         $D_HI
+  VEDIC_4x4_1_ADDER_4X4_1_FA_1_N01184 VEDIC_4x4_1_ADDER_4X4_1_FA_1_N01015 $D_HI
+  MbreakP           
M_VEDIC_4x4_1_ADDER_4X4_1_FA_1_M5         $D_HI
+  VEDIC_4x4_1_ADDER_4X4_1_FA_1_N00946 VEDIC_4x4_1_ADDER_4X4_1_N00549 $D_HI
+  MbreakP           
M_VEDIC_4x4_1_ADDER_4X4_1_FA_2_M6         VEDIC_4x4_1_ADDER_4X4_1_N00567
+  VEDIC_4x4_1_ADDER_4X4_1_FA_2_N00946 0 0 MbreakN           
M_VEDIC_4x4_1_ADDER_4X4_1_FA_2_HA1_M11        
+  VEDIC_4x4_1_ADDER_4X4_1_FA_2_HA1_N09191 VEDIC_4x4_1_N00799 0 0 MbreakN        
+    
M_VEDIC_4x4_1_ADDER_4X4_1_FA_2_HA1_M5         $D_HI VEDIC_4x4_1_N00799
+  VEDIC_4x4_1_ADDER_4X4_1_FA_2_HA1_N06579 $D_HI MbreakP           
M_VEDIC_4x4_1_ADDER_4X4_1_FA_2_HA1_M2        
+  VEDIC_4x4_1_ADDER_4X4_1_FA_2_HA1_N06008 VEDIC_4x4_1_N00799 0 0 MbreakN        
+    
M_VEDIC_4x4_1_ADDER_4X4_1_FA_2_HA1_M4         $D_HI 0
+  VEDIC_4x4_1_ADDER_4X4_1_FA_2_HA1_N06579 $D_HI MbreakP           
M_VEDIC_4x4_1_ADDER_4X4_1_FA_2_HA1_M12        
+  VEDIC_4x4_1_ADDER_4X4_1_FA_2_HA1_N09404 0 VEDIC_4x4_1_ADDER_4X4_1_FA_2_N00311
+  $D_HI MbreakP           
M_VEDIC_4x4_1_ADDER_4X4_1_FA_2_HA1_M1        
+  VEDIC_4x4_1_ADDER_4X4_1_FA_2_HA1_N06579 0
+  VEDIC_4x4_1_ADDER_4X4_1_FA_2_HA1_N06008 0 MbreakN           
M_VEDIC_4x4_1_ADDER_4X4_1_FA_2_HA1_M6         $D_HI
+  VEDIC_4x4_1_ADDER_4X4_1_FA_2_HA1_N06579 VEDIC_4x4_1_ADDER_4X4_1_FA_2_N01184
+  $D_HI MbreakP           
M_VEDIC_4x4_1_ADDER_4X4_1_FA_2_HA1_M13        
+  VEDIC_4x4_1_ADDER_4X4_1_FA_2_HA1_N09404 VEDIC_4x4_1_N00799
+  VEDIC_4x4_1_ADDER_4X4_1_FA_2_N00311 $D_HI MbreakP           
M_VEDIC_4x4_1_ADDER_4X4_1_FA_2_HA1_M3        
+  VEDIC_4x4_1_ADDER_4X4_1_FA_2_N01184 VEDIC_4x4_1_ADDER_4X4_1_FA_2_HA1_N06579 0
+  0 MbreakN           
M_VEDIC_4x4_1_ADDER_4X4_1_FA_2_HA1_M16         $D_HI 0
+  VEDIC_4x4_1_ADDER_4X4_1_FA_2_HA1_N11593 $D_HI MbreakP           
M_VEDIC_4x4_1_ADDER_4X4_1_FA_2_HA1_M8        
+  VEDIC_4x4_1_ADDER_4X4_1_FA_2_HA1_N09076
+  VEDIC_4x4_1_ADDER_4X4_1_FA_2_HA1_N11628 0 0 MbreakN           
M_VEDIC_4x4_1_ADDER_4X4_1_FA_2_HA1_M14         $D_HI
+  VEDIC_4x4_1_ADDER_4X4_1_FA_2_HA1_N11593
+  VEDIC_4x4_1_ADDER_4X4_1_FA_2_HA1_N09404 $D_HI MbreakP           
M_VEDIC_4x4_1_ADDER_4X4_1_FA_2_HA1_M17         $D_HI VEDIC_4x4_1_N00799
+  VEDIC_4x4_1_ADDER_4X4_1_FA_2_HA1_N11628 $D_HI MbreakP           
M_VEDIC_4x4_1_ADDER_4X4_1_FA_2_HA1_M9        
+  VEDIC_4x4_1_ADDER_4X4_1_FA_2_N00311 0 VEDIC_4x4_1_ADDER_4X4_1_FA_2_HA1_N09191
+  0 MbreakN           
M_VEDIC_4x4_1_ADDER_4X4_1_FA_2_HA1_M15         $D_HI
+  VEDIC_4x4_1_ADDER_4X4_1_FA_2_HA1_N11628
+  VEDIC_4x4_1_ADDER_4X4_1_FA_2_HA1_N09404 $D_HI MbreakP           
M_VEDIC_4x4_1_ADDER_4X4_1_FA_2_HA1_M18        
+  VEDIC_4x4_1_ADDER_4X4_1_FA_2_HA1_N11593 0 0 0 MbreakN           
M_VEDIC_4x4_1_ADDER_4X4_1_FA_2_HA1_M10        
+  VEDIC_4x4_1_ADDER_4X4_1_FA_2_N00311 VEDIC_4x4_1_ADDER_4X4_1_FA_2_HA1_N11593
+  VEDIC_4x4_1_ADDER_4X4_1_FA_2_HA1_N09076 0 MbreakN           
M_VEDIC_4x4_1_ADDER_4X4_1_FA_2_HA1_M19        
+  VEDIC_4x4_1_ADDER_4X4_1_FA_2_HA1_N11628 VEDIC_4x4_1_N00799 0 0 MbreakN        
+    
M_VEDIC_4x4_1_ADDER_4X4_1_FA_2_M1         VEDIC_4x4_1_ADDER_4X4_1_FA_2_N00946
+  VEDIC_4x4_1_ADDER_4X4_1_FA_2_N01184 0 0 MbreakN           
M_VEDIC_4x4_1_ADDER_4X4_1_FA_2_HA2_M11        
+  VEDIC_4x4_1_ADDER_4X4_1_FA_2_HA2_N09191 VEDIC_4x4_1_ADDER_4X4_1_FA_2_N00311 0
+  0 MbreakN           
M_VEDIC_4x4_1_ADDER_4X4_1_FA_2_HA2_M5         $D_HI
+  VEDIC_4x4_1_ADDER_4X4_1_FA_2_N00311 VEDIC_4x4_1_ADDER_4X4_1_FA_2_HA2_N06579
+  $D_HI MbreakP           
M_VEDIC_4x4_1_ADDER_4X4_1_FA_2_HA2_M2        
+  VEDIC_4x4_1_ADDER_4X4_1_FA_2_HA2_N06008 VEDIC_4x4_1_ADDER_4X4_1_FA_2_N00311 0
+  0 MbreakN           
M_VEDIC_4x4_1_ADDER_4X4_1_FA_2_HA2_M4         $D_HI
+  VEDIC_4x4_1_ADDER_4X4_1_N00549 VEDIC_4x4_1_ADDER_4X4_1_FA_2_HA2_N06579 $D_HI
+  MbreakP           
M_VEDIC_4x4_1_ADDER_4X4_1_FA_2_HA2_M12        
+  VEDIC_4x4_1_ADDER_4X4_1_FA_2_HA2_N09404 VEDIC_4x4_1_ADDER_4X4_1_N00549
+  VEDIC_4x4_1_N02898 $D_HI MbreakP           
M_VEDIC_4x4_1_ADDER_4X4_1_FA_2_HA2_M1        
+  VEDIC_4x4_1_ADDER_4X4_1_FA_2_HA2_N06579 VEDIC_4x4_1_ADDER_4X4_1_N00549
+  VEDIC_4x4_1_ADDER_4X4_1_FA_2_HA2_N06008 0 MbreakN           
M_VEDIC_4x4_1_ADDER_4X4_1_FA_2_HA2_M6         $D_HI
+  VEDIC_4x4_1_ADDER_4X4_1_FA_2_HA2_N06579 VEDIC_4x4_1_ADDER_4X4_1_FA_2_N01242
+  $D_HI MbreakP           
M_VEDIC_4x4_1_ADDER_4X4_1_FA_2_HA2_M13        
+  VEDIC_4x4_1_ADDER_4X4_1_FA_2_HA2_N09404 VEDIC_4x4_1_ADDER_4X4_1_FA_2_N00311
+  VEDIC_4x4_1_N02898 $D_HI MbreakP           
M_VEDIC_4x4_1_ADDER_4X4_1_FA_2_HA2_M3        
+  VEDIC_4x4_1_ADDER_4X4_1_FA_2_N01242 VEDIC_4x4_1_ADDER_4X4_1_FA_2_HA2_N06579 0
+  0 MbreakN           
M_VEDIC_4x4_1_ADDER_4X4_1_FA_2_HA2_M16         $D_HI
+  VEDIC_4x4_1_ADDER_4X4_1_N00549 VEDIC_4x4_1_ADDER_4X4_1_FA_2_HA2_N11593 $D_HI
+  MbreakP           
M_VEDIC_4x4_1_ADDER_4X4_1_FA_2_HA2_M8        
+  VEDIC_4x4_1_ADDER_4X4_1_FA_2_HA2_N09076
+  VEDIC_4x4_1_ADDER_4X4_1_FA_2_HA2_N11628 0 0 MbreakN           
M_VEDIC_4x4_1_ADDER_4X4_1_FA_2_HA2_M14         $D_HI
+  VEDIC_4x4_1_ADDER_4X4_1_FA_2_HA2_N11593
+  VEDIC_4x4_1_ADDER_4X4_1_FA_2_HA2_N09404 $D_HI MbreakP           
M_VEDIC_4x4_1_ADDER_4X4_1_FA_2_HA2_M17         $D_HI
+  VEDIC_4x4_1_ADDER_4X4_1_FA_2_N00311 VEDIC_4x4_1_ADDER_4X4_1_FA_2_HA2_N11628
+  $D_HI MbreakP           
M_VEDIC_4x4_1_ADDER_4X4_1_FA_2_HA2_M9         VEDIC_4x4_1_N02898
+  VEDIC_4x4_1_ADDER_4X4_1_N00549 VEDIC_4x4_1_ADDER_4X4_1_FA_2_HA2_N09191 0
+  MbreakN           
M_VEDIC_4x4_1_ADDER_4X4_1_FA_2_HA2_M15         $D_HI
+  VEDIC_4x4_1_ADDER_4X4_1_FA_2_HA2_N11628
+  VEDIC_4x4_1_ADDER_4X4_1_FA_2_HA2_N09404 $D_HI MbreakP           
M_VEDIC_4x4_1_ADDER_4X4_1_FA_2_HA2_M18        
+  VEDIC_4x4_1_ADDER_4X4_1_FA_2_HA2_N11593 VEDIC_4x4_1_ADDER_4X4_1_N00549 0 0
+  MbreakN           
M_VEDIC_4x4_1_ADDER_4X4_1_FA_2_HA2_M10         VEDIC_4x4_1_N02898
+  VEDIC_4x4_1_ADDER_4X4_1_FA_2_HA2_N11593
+  VEDIC_4x4_1_ADDER_4X4_1_FA_2_HA2_N09076 0 MbreakN           
M_VEDIC_4x4_1_ADDER_4X4_1_FA_2_HA2_M19        
+  VEDIC_4x4_1_ADDER_4X4_1_FA_2_HA2_N11628 VEDIC_4x4_1_ADDER_4X4_1_FA_2_N00311 0
+  0 MbreakN           
M_VEDIC_4x4_1_ADDER_4X4_1_FA_2_M3         VEDIC_4x4_1_ADDER_4X4_1_FA_2_N01015
+  VEDIC_4x4_1_ADDER_4X4_1_FA_2_N01242 VEDIC_4x4_1_ADDER_4X4_1_FA_2_N00946 $D_HI
+  MbreakP           
M_VEDIC_4x4_1_ADDER_4X4_1_FA_2_M2         VEDIC_4x4_1_ADDER_4X4_1_FA_2_N00946
+  VEDIC_4x4_1_ADDER_4X4_1_FA_2_N01242 0 0 MbreakN           
M_VEDIC_4x4_1_ADDER_4X4_1_FA_2_M4         $D_HI
+  VEDIC_4x4_1_ADDER_4X4_1_FA_2_N01184 VEDIC_4x4_1_ADDER_4X4_1_FA_2_N01015 $D_HI
+  MbreakP           
M_VEDIC_4x4_1_ADDER_4X4_1_FA_2_M5         $D_HI
+  VEDIC_4x4_1_ADDER_4X4_1_FA_2_N00946 VEDIC_4x4_1_ADDER_4X4_1_N00567 $D_HI
+  MbreakP           
M_VEDIC_4x4_1_ADDER_4X4_1_FA_3_M6         VEDIC_4x4_1_N07833
+  VEDIC_4x4_1_ADDER_4X4_1_FA_3_N00946 0 0 MbreakN           
M_VEDIC_4x4_1_ADDER_4X4_1_FA_3_HA1_M11        
+  VEDIC_4x4_1_ADDER_4X4_1_FA_3_HA1_N09191 VEDIC_4x4_1_N00828 0 0 MbreakN        
+    
M_VEDIC_4x4_1_ADDER_4X4_1_FA_3_HA1_M5         $D_HI VEDIC_4x4_1_N00828
+  VEDIC_4x4_1_ADDER_4X4_1_FA_3_HA1_N06579 $D_HI MbreakP           
M_VEDIC_4x4_1_ADDER_4X4_1_FA_3_HA1_M2        
+  VEDIC_4x4_1_ADDER_4X4_1_FA_3_HA1_N06008 VEDIC_4x4_1_N00828 0 0 MbreakN        
+    
M_VEDIC_4x4_1_ADDER_4X4_1_FA_3_HA1_M4         $D_HI 0
+  VEDIC_4x4_1_ADDER_4X4_1_FA_3_HA1_N06579 $D_HI MbreakP           
M_VEDIC_4x4_1_ADDER_4X4_1_FA_3_HA1_M12        
+  VEDIC_4x4_1_ADDER_4X4_1_FA_3_HA1_N09404 0 VEDIC_4x4_1_ADDER_4X4_1_FA_3_N00311
+  $D_HI MbreakP           
M_VEDIC_4x4_1_ADDER_4X4_1_FA_3_HA1_M1        
+  VEDIC_4x4_1_ADDER_4X4_1_FA_3_HA1_N06579 0
+  VEDIC_4x4_1_ADDER_4X4_1_FA_3_HA1_N06008 0 MbreakN           
M_VEDIC_4x4_1_ADDER_4X4_1_FA_3_HA1_M6         $D_HI
+  VEDIC_4x4_1_ADDER_4X4_1_FA_3_HA1_N06579 VEDIC_4x4_1_ADDER_4X4_1_FA_3_N01184
+  $D_HI MbreakP           
M_VEDIC_4x4_1_ADDER_4X4_1_FA_3_HA1_M13        
+  VEDIC_4x4_1_ADDER_4X4_1_FA_3_HA1_N09404 VEDIC_4x4_1_N00828
+  VEDIC_4x4_1_ADDER_4X4_1_FA_3_N00311 $D_HI MbreakP           
M_VEDIC_4x4_1_ADDER_4X4_1_FA_3_HA1_M3        
+  VEDIC_4x4_1_ADDER_4X4_1_FA_3_N01184 VEDIC_4x4_1_ADDER_4X4_1_FA_3_HA1_N06579 0
+  0 MbreakN           
M_VEDIC_4x4_1_ADDER_4X4_1_FA_3_HA1_M16         $D_HI 0
+  VEDIC_4x4_1_ADDER_4X4_1_FA_3_HA1_N11593 $D_HI MbreakP           
M_VEDIC_4x4_1_ADDER_4X4_1_FA_3_HA1_M8        
+  VEDIC_4x4_1_ADDER_4X4_1_FA_3_HA1_N09076
+  VEDIC_4x4_1_ADDER_4X4_1_FA_3_HA1_N11628 0 0 MbreakN           
M_VEDIC_4x4_1_ADDER_4X4_1_FA_3_HA1_M14         $D_HI
+  VEDIC_4x4_1_ADDER_4X4_1_FA_3_HA1_N11593
+  VEDIC_4x4_1_ADDER_4X4_1_FA_3_HA1_N09404 $D_HI MbreakP           
M_VEDIC_4x4_1_ADDER_4X4_1_FA_3_HA1_M17         $D_HI VEDIC_4x4_1_N00828
+  VEDIC_4x4_1_ADDER_4X4_1_FA_3_HA1_N11628 $D_HI MbreakP           
M_VEDIC_4x4_1_ADDER_4X4_1_FA_3_HA1_M9        
+  VEDIC_4x4_1_ADDER_4X4_1_FA_3_N00311 0 VEDIC_4x4_1_ADDER_4X4_1_FA_3_HA1_N09191
+  0 MbreakN           
M_VEDIC_4x4_1_ADDER_4X4_1_FA_3_HA1_M15         $D_HI
+  VEDIC_4x4_1_ADDER_4X4_1_FA_3_HA1_N11628
+  VEDIC_4x4_1_ADDER_4X4_1_FA_3_HA1_N09404 $D_HI MbreakP           
M_VEDIC_4x4_1_ADDER_4X4_1_FA_3_HA1_M18        
+  VEDIC_4x4_1_ADDER_4X4_1_FA_3_HA1_N11593 0 0 0 MbreakN           
M_VEDIC_4x4_1_ADDER_4X4_1_FA_3_HA1_M10        
+  VEDIC_4x4_1_ADDER_4X4_1_FA_3_N00311 VEDIC_4x4_1_ADDER_4X4_1_FA_3_HA1_N11593
+  VEDIC_4x4_1_ADDER_4X4_1_FA_3_HA1_N09076 0 MbreakN           
M_VEDIC_4x4_1_ADDER_4X4_1_FA_3_HA1_M19        
+  VEDIC_4x4_1_ADDER_4X4_1_FA_3_HA1_N11628 VEDIC_4x4_1_N00828 0 0 MbreakN        
+    
M_VEDIC_4x4_1_ADDER_4X4_1_FA_3_M1         VEDIC_4x4_1_ADDER_4X4_1_FA_3_N00946
+  VEDIC_4x4_1_ADDER_4X4_1_FA_3_N01184 0 0 MbreakN           
M_VEDIC_4x4_1_ADDER_4X4_1_FA_3_HA2_M11        
+  VEDIC_4x4_1_ADDER_4X4_1_FA_3_HA2_N09191 VEDIC_4x4_1_ADDER_4X4_1_FA_3_N00311 0
+  0 MbreakN           
M_VEDIC_4x4_1_ADDER_4X4_1_FA_3_HA2_M5         $D_HI
+  VEDIC_4x4_1_ADDER_4X4_1_FA_3_N00311 VEDIC_4x4_1_ADDER_4X4_1_FA_3_HA2_N06579
+  $D_HI MbreakP           
M_VEDIC_4x4_1_ADDER_4X4_1_FA_3_HA2_M2        
+  VEDIC_4x4_1_ADDER_4X4_1_FA_3_HA2_N06008 VEDIC_4x4_1_ADDER_4X4_1_FA_3_N00311 0
+  0 MbreakN           
M_VEDIC_4x4_1_ADDER_4X4_1_FA_3_HA2_M4         $D_HI
+  VEDIC_4x4_1_ADDER_4X4_1_N00567 VEDIC_4x4_1_ADDER_4X4_1_FA_3_HA2_N06579 $D_HI
+  MbreakP           
M_VEDIC_4x4_1_ADDER_4X4_1_FA_3_HA2_M12        
+  VEDIC_4x4_1_ADDER_4X4_1_FA_3_HA2_N09404 VEDIC_4x4_1_ADDER_4X4_1_N00567
+  VEDIC_4x4_1_N02916 $D_HI MbreakP           
M_VEDIC_4x4_1_ADDER_4X4_1_FA_3_HA2_M1        
+  VEDIC_4x4_1_ADDER_4X4_1_FA_3_HA2_N06579 VEDIC_4x4_1_ADDER_4X4_1_N00567
+  VEDIC_4x4_1_ADDER_4X4_1_FA_3_HA2_N06008 0 MbreakN           
M_VEDIC_4x4_1_ADDER_4X4_1_FA_3_HA2_M6         $D_HI
+  VEDIC_4x4_1_ADDER_4X4_1_FA_3_HA2_N06579 VEDIC_4x4_1_ADDER_4X4_1_FA_3_N01242
+  $D_HI MbreakP           
M_VEDIC_4x4_1_ADDER_4X4_1_FA_3_HA2_M13        
+  VEDIC_4x4_1_ADDER_4X4_1_FA_3_HA2_N09404 VEDIC_4x4_1_ADDER_4X4_1_FA_3_N00311
+  VEDIC_4x4_1_N02916 $D_HI MbreakP           
M_VEDIC_4x4_1_ADDER_4X4_1_FA_3_HA2_M3        
+  VEDIC_4x4_1_ADDER_4X4_1_FA_3_N01242 VEDIC_4x4_1_ADDER_4X4_1_FA_3_HA2_N06579 0
+  0 MbreakN           
M_VEDIC_4x4_1_ADDER_4X4_1_FA_3_HA2_M16         $D_HI
+  VEDIC_4x4_1_ADDER_4X4_1_N00567 VEDIC_4x4_1_ADDER_4X4_1_FA_3_HA2_N11593 $D_HI
+  MbreakP           
M_VEDIC_4x4_1_ADDER_4X4_1_FA_3_HA2_M8        
+  VEDIC_4x4_1_ADDER_4X4_1_FA_3_HA2_N09076
+  VEDIC_4x4_1_ADDER_4X4_1_FA_3_HA2_N11628 0 0 MbreakN           
M_VEDIC_4x4_1_ADDER_4X4_1_FA_3_HA2_M14         $D_HI
+  VEDIC_4x4_1_ADDER_4X4_1_FA_3_HA2_N11593
+  VEDIC_4x4_1_ADDER_4X4_1_FA_3_HA2_N09404 $D_HI MbreakP           
M_VEDIC_4x4_1_ADDER_4X4_1_FA_3_HA2_M17         $D_HI
+  VEDIC_4x4_1_ADDER_4X4_1_FA_3_N00311 VEDIC_4x4_1_ADDER_4X4_1_FA_3_HA2_N11628
+  $D_HI MbreakP           
M_VEDIC_4x4_1_ADDER_4X4_1_FA_3_HA2_M9         VEDIC_4x4_1_N02916
+  VEDIC_4x4_1_ADDER_4X4_1_N00567 VEDIC_4x4_1_ADDER_4X4_1_FA_3_HA2_N09191 0
+  MbreakN           
M_VEDIC_4x4_1_ADDER_4X4_1_FA_3_HA2_M15         $D_HI
+  VEDIC_4x4_1_ADDER_4X4_1_FA_3_HA2_N11628
+  VEDIC_4x4_1_ADDER_4X4_1_FA_3_HA2_N09404 $D_HI MbreakP           
M_VEDIC_4x4_1_ADDER_4X4_1_FA_3_HA2_M18        
+  VEDIC_4x4_1_ADDER_4X4_1_FA_3_HA2_N11593 VEDIC_4x4_1_ADDER_4X4_1_N00567 0 0
+  MbreakN           
M_VEDIC_4x4_1_ADDER_4X4_1_FA_3_HA2_M10         VEDIC_4x4_1_N02916
+  VEDIC_4x4_1_ADDER_4X4_1_FA_3_HA2_N11593
+  VEDIC_4x4_1_ADDER_4X4_1_FA_3_HA2_N09076 0 MbreakN           
M_VEDIC_4x4_1_ADDER_4X4_1_FA_3_HA2_M19        
+  VEDIC_4x4_1_ADDER_4X4_1_FA_3_HA2_N11628 VEDIC_4x4_1_ADDER_4X4_1_FA_3_N00311 0
+  0 MbreakN           
M_VEDIC_4x4_1_ADDER_4X4_1_FA_3_M3         VEDIC_4x4_1_ADDER_4X4_1_FA_3_N01015
+  VEDIC_4x4_1_ADDER_4X4_1_FA_3_N01242 VEDIC_4x4_1_ADDER_4X4_1_FA_3_N00946 $D_HI
+  MbreakP           
M_VEDIC_4x4_1_ADDER_4X4_1_FA_3_M2         VEDIC_4x4_1_ADDER_4X4_1_FA_3_N00946
+  VEDIC_4x4_1_ADDER_4X4_1_FA_3_N01242 0 0 MbreakN           
M_VEDIC_4x4_1_ADDER_4X4_1_FA_3_M4         $D_HI
+  VEDIC_4x4_1_ADDER_4X4_1_FA_3_N01184 VEDIC_4x4_1_ADDER_4X4_1_FA_3_N01015 $D_HI
+  MbreakP           
M_VEDIC_4x4_1_ADDER_4X4_1_FA_3_M5         $D_HI
+  VEDIC_4x4_1_ADDER_4X4_1_FA_3_N00946 VEDIC_4x4_1_N07833 $D_HI MbreakP          
+  
M_VEDIC_4x4_1_ADDER_6x6_2_4x4_1_HA_1_M11        
+  VEDIC_4x4_1_ADDER_6x6_2_4x4_1_HA_1_N09191 VEDIC_4x4_1_N02988 0 0 MbreakN      
+      
M_VEDIC_4x4_1_ADDER_6x6_2_4x4_1_HA_1_M5         $D_HI VEDIC_4x4_1_N02988
+  VEDIC_4x4_1_ADDER_6x6_2_4x4_1_HA_1_N06579 $D_HI MbreakP           
M_VEDIC_4x4_1_ADDER_6x6_2_4x4_1_HA_1_M2        
+  VEDIC_4x4_1_ADDER_6x6_2_4x4_1_HA_1_N06008 VEDIC_4x4_1_N02988 0 0 MbreakN      
+      
M_VEDIC_4x4_1_ADDER_6x6_2_4x4_1_HA_1_M4         $D_HI VEDIC_4x4_1_N02786
+  VEDIC_4x4_1_ADDER_6x6_2_4x4_1_HA_1_N06579 $D_HI MbreakP           
M_VEDIC_4x4_1_ADDER_6x6_2_4x4_1_HA_1_M12        
+  VEDIC_4x4_1_ADDER_6x6_2_4x4_1_HA_1_N09404 VEDIC_4x4_1_N02786 Q2 $D_HI MbreakP 
+           
M_VEDIC_4x4_1_ADDER_6x6_2_4x4_1_HA_1_M1        
+  VEDIC_4x4_1_ADDER_6x6_2_4x4_1_HA_1_N06579 VEDIC_4x4_1_N02786
+  VEDIC_4x4_1_ADDER_6x6_2_4x4_1_HA_1_N06008 0 MbreakN           
M_VEDIC_4x4_1_ADDER_6x6_2_4x4_1_HA_1_M6         $D_HI
+  VEDIC_4x4_1_ADDER_6x6_2_4x4_1_HA_1_N06579 VEDIC_4x4_1_ADDER_6x6_2_4x4_1_N00531
+  $D_HI MbreakP           
M_VEDIC_4x4_1_ADDER_6x6_2_4x4_1_HA_1_M13        
+  VEDIC_4x4_1_ADDER_6x6_2_4x4_1_HA_1_N09404 VEDIC_4x4_1_N02988 Q2 $D_HI MbreakP 
+           
M_VEDIC_4x4_1_ADDER_6x6_2_4x4_1_HA_1_M3        
+  VEDIC_4x4_1_ADDER_6x6_2_4x4_1_N00531 VEDIC_4x4_1_ADDER_6x6_2_4x4_1_HA_1_N06579
+  0 0 MbreakN           
M_VEDIC_4x4_1_ADDER_6x6_2_4x4_1_HA_1_M16         $D_HI VEDIC_4x4_1_N02786
+  VEDIC_4x4_1_ADDER_6x6_2_4x4_1_HA_1_N11593 $D_HI MbreakP           
M_VEDIC_4x4_1_ADDER_6x6_2_4x4_1_HA_1_M8        
+  VEDIC_4x4_1_ADDER_6x6_2_4x4_1_HA_1_N09076
+  VEDIC_4x4_1_ADDER_6x6_2_4x4_1_HA_1_N11628 0 0 MbreakN           
M_VEDIC_4x4_1_ADDER_6x6_2_4x4_1_HA_1_M14         $D_HI
+  VEDIC_4x4_1_ADDER_6x6_2_4x4_1_HA_1_N11593
+  VEDIC_4x4_1_ADDER_6x6_2_4x4_1_HA_1_N09404 $D_HI MbreakP           
M_VEDIC_4x4_1_ADDER_6x6_2_4x4_1_HA_1_M17         $D_HI VEDIC_4x4_1_N02988
+  VEDIC_4x4_1_ADDER_6x6_2_4x4_1_HA_1_N11628 $D_HI MbreakP           
M_VEDIC_4x4_1_ADDER_6x6_2_4x4_1_HA_1_M9         Q2 VEDIC_4x4_1_N02786
+  VEDIC_4x4_1_ADDER_6x6_2_4x4_1_HA_1_N09191 0 MbreakN           
M_VEDIC_4x4_1_ADDER_6x6_2_4x4_1_HA_1_M15         $D_HI
+  VEDIC_4x4_1_ADDER_6x6_2_4x4_1_HA_1_N11628
+  VEDIC_4x4_1_ADDER_6x6_2_4x4_1_HA_1_N09404 $D_HI MbreakP           
M_VEDIC_4x4_1_ADDER_6x6_2_4x4_1_HA_1_M18        
+  VEDIC_4x4_1_ADDER_6x6_2_4x4_1_HA_1_N11593 VEDIC_4x4_1_N02786 0 0 MbreakN      
+      
M_VEDIC_4x4_1_ADDER_6x6_2_4x4_1_HA_1_M10         Q2
+  VEDIC_4x4_1_ADDER_6x6_2_4x4_1_HA_1_N11593
+  VEDIC_4x4_1_ADDER_6x6_2_4x4_1_HA_1_N09076 0 MbreakN           
M_VEDIC_4x4_1_ADDER_6x6_2_4x4_1_HA_1_M19        
+  VEDIC_4x4_1_ADDER_6x6_2_4x4_1_HA_1_N11628 VEDIC_4x4_1_N02988 0 0 MbreakN      
+      
M_VEDIC_4x4_1_ADDER_6x6_2_4x4_1_FA_1_M6        
+  VEDIC_4x4_1_ADDER_6x6_2_4x4_1_N00549 VEDIC_4x4_1_ADDER_6x6_2_4x4_1_FA_1_N00946
+  0 0 MbreakN           
M_VEDIC_4x4_1_ADDER_6x6_2_4x4_1_FA_1_HA1_M11        
+  VEDIC_4x4_1_ADDER_6x6_2_4x4_1_FA_1_HA1_N09191 VEDIC_4x4_1_N02999 0 0 MbreakN  
+          
M_VEDIC_4x4_1_ADDER_6x6_2_4x4_1_FA_1_HA1_M5         $D_HI VEDIC_4x4_1_N02999
+  VEDIC_4x4_1_ADDER_6x6_2_4x4_1_FA_1_HA1_N06579 $D_HI MbreakP           
M_VEDIC_4x4_1_ADDER_6x6_2_4x4_1_FA_1_HA1_M2        
+  VEDIC_4x4_1_ADDER_6x6_2_4x4_1_FA_1_HA1_N06008 VEDIC_4x4_1_N02999 0 0 MbreakN  
+          
M_VEDIC_4x4_1_ADDER_6x6_2_4x4_1_FA_1_HA1_M4         $D_HI VEDIC_4x4_1_N02880
+  VEDIC_4x4_1_ADDER_6x6_2_4x4_1_FA_1_HA1_N06579 $D_HI MbreakP           
M_VEDIC_4x4_1_ADDER_6x6_2_4x4_1_FA_1_HA1_M12        
+  VEDIC_4x4_1_ADDER_6x6_2_4x4_1_FA_1_HA1_N09404 VEDIC_4x4_1_N02880
+  VEDIC_4x4_1_ADDER_6x6_2_4x4_1_FA_1_N00311 $D_HI MbreakP           
M_VEDIC_4x4_1_ADDER_6x6_2_4x4_1_FA_1_HA1_M1        
+  VEDIC_4x4_1_ADDER_6x6_2_4x4_1_FA_1_HA1_N06579 VEDIC_4x4_1_N02880
+  VEDIC_4x4_1_ADDER_6x6_2_4x4_1_FA_1_HA1_N06008 0 MbreakN           
M_VEDIC_4x4_1_ADDER_6x6_2_4x4_1_FA_1_HA1_M6         $D_HI
+  VEDIC_4x4_1_ADDER_6x6_2_4x4_1_FA_1_HA1_N06579
+  VEDIC_4x4_1_ADDER_6x6_2_4x4_1_FA_1_N01184 $D_HI MbreakP           
M_VEDIC_4x4_1_ADDER_6x6_2_4x4_1_FA_1_HA1_M13        
+  VEDIC_4x4_1_ADDER_6x6_2_4x4_1_FA_1_HA1_N09404 VEDIC_4x4_1_N02999
+  VEDIC_4x4_1_ADDER_6x6_2_4x4_1_FA_1_N00311 $D_HI MbreakP           
M_VEDIC_4x4_1_ADDER_6x6_2_4x4_1_FA_1_HA1_M3        
+  VEDIC_4x4_1_ADDER_6x6_2_4x4_1_FA_1_N01184
+  VEDIC_4x4_1_ADDER_6x6_2_4x4_1_FA_1_HA1_N06579 0 0 MbreakN           
M_VEDIC_4x4_1_ADDER_6x6_2_4x4_1_FA_1_HA1_M16         $D_HI VEDIC_4x4_1_N02880
+  VEDIC_4x4_1_ADDER_6x6_2_4x4_1_FA_1_HA1_N11593 $D_HI MbreakP           
M_VEDIC_4x4_1_ADDER_6x6_2_4x4_1_FA_1_HA1_M8        
+  VEDIC_4x4_1_ADDER_6x6_2_4x4_1_FA_1_HA1_N09076
+  VEDIC_4x4_1_ADDER_6x6_2_4x4_1_FA_1_HA1_N11628 0 0 MbreakN           
M_VEDIC_4x4_1_ADDER_6x6_2_4x4_1_FA_1_HA1_M14         $D_HI
+  VEDIC_4x4_1_ADDER_6x6_2_4x4_1_FA_1_HA1_N11593
+  VEDIC_4x4_1_ADDER_6x6_2_4x4_1_FA_1_HA1_N09404 $D_HI MbreakP           
M_VEDIC_4x4_1_ADDER_6x6_2_4x4_1_FA_1_HA1_M17         $D_HI VEDIC_4x4_1_N02999
+  VEDIC_4x4_1_ADDER_6x6_2_4x4_1_FA_1_HA1_N11628 $D_HI MbreakP           
M_VEDIC_4x4_1_ADDER_6x6_2_4x4_1_FA_1_HA1_M9        
+  VEDIC_4x4_1_ADDER_6x6_2_4x4_1_FA_1_N00311 VEDIC_4x4_1_N02880
+  VEDIC_4x4_1_ADDER_6x6_2_4x4_1_FA_1_HA1_N09191 0 MbreakN           
M_VEDIC_4x4_1_ADDER_6x6_2_4x4_1_FA_1_HA1_M15         $D_HI
+  VEDIC_4x4_1_ADDER_6x6_2_4x4_1_FA_1_HA1_N11628
+  VEDIC_4x4_1_ADDER_6x6_2_4x4_1_FA_1_HA1_N09404 $D_HI MbreakP           
M_VEDIC_4x4_1_ADDER_6x6_2_4x4_1_FA_1_HA1_M18        
+  VEDIC_4x4_1_ADDER_6x6_2_4x4_1_FA_1_HA1_N11593 VEDIC_4x4_1_N02880 0 0 MbreakN  
+          
M_VEDIC_4x4_1_ADDER_6x6_2_4x4_1_FA_1_HA1_M10        
+  VEDIC_4x4_1_ADDER_6x6_2_4x4_1_FA_1_N00311
+  VEDIC_4x4_1_ADDER_6x6_2_4x4_1_FA_1_HA1_N11593
+  VEDIC_4x4_1_ADDER_6x6_2_4x4_1_FA_1_HA1_N09076 0 MbreakN           
M_VEDIC_4x4_1_ADDER_6x6_2_4x4_1_FA_1_HA1_M19        
+  VEDIC_4x4_1_ADDER_6x6_2_4x4_1_FA_1_HA1_N11628 VEDIC_4x4_1_N02999 0 0 MbreakN  
+          
M_VEDIC_4x4_1_ADDER_6x6_2_4x4_1_FA_1_M1        
+  VEDIC_4x4_1_ADDER_6x6_2_4x4_1_FA_1_N00946
+  VEDIC_4x4_1_ADDER_6x6_2_4x4_1_FA_1_N01184 0 0 MbreakN           
M_VEDIC_4x4_1_ADDER_6x6_2_4x4_1_FA_1_HA2_M11        
+  VEDIC_4x4_1_ADDER_6x6_2_4x4_1_FA_1_HA2_N09191
+  VEDIC_4x4_1_ADDER_6x6_2_4x4_1_FA_1_N00311 0 0 MbreakN           
M_VEDIC_4x4_1_ADDER_6x6_2_4x4_1_FA_1_HA2_M5         $D_HI
+  VEDIC_4x4_1_ADDER_6x6_2_4x4_1_FA_1_N00311
+  VEDIC_4x4_1_ADDER_6x6_2_4x4_1_FA_1_HA2_N06579 $D_HI MbreakP           
M_VEDIC_4x4_1_ADDER_6x6_2_4x4_1_FA_1_HA2_M2        
+  VEDIC_4x4_1_ADDER_6x6_2_4x4_1_FA_1_HA2_N06008
+  VEDIC_4x4_1_ADDER_6x6_2_4x4_1_FA_1_N00311 0 0 MbreakN           
M_VEDIC_4x4_1_ADDER_6x6_2_4x4_1_FA_1_HA2_M4         $D_HI
+  VEDIC_4x4_1_ADDER_6x6_2_4x4_1_N00531
+  VEDIC_4x4_1_ADDER_6x6_2_4x4_1_FA_1_HA2_N06579 $D_HI MbreakP           
M_VEDIC_4x4_1_ADDER_6x6_2_4x4_1_FA_1_HA2_M12        
+  VEDIC_4x4_1_ADDER_6x6_2_4x4_1_FA_1_HA2_N09404
+  VEDIC_4x4_1_ADDER_6x6_2_4x4_1_N00531 Q3 $D_HI MbreakP           
M_VEDIC_4x4_1_ADDER_6x6_2_4x4_1_FA_1_HA2_M1        
+  VEDIC_4x4_1_ADDER_6x6_2_4x4_1_FA_1_HA2_N06579
+  VEDIC_4x4_1_ADDER_6x6_2_4x4_1_N00531
+  VEDIC_4x4_1_ADDER_6x6_2_4x4_1_FA_1_HA2_N06008 0 MbreakN           
M_VEDIC_4x4_1_ADDER_6x6_2_4x4_1_FA_1_HA2_M6         $D_HI
+  VEDIC_4x4_1_ADDER_6x6_2_4x4_1_FA_1_HA2_N06579
+  VEDIC_4x4_1_ADDER_6x6_2_4x4_1_FA_1_N01242 $D_HI MbreakP           
M_VEDIC_4x4_1_ADDER_6x6_2_4x4_1_FA_1_HA2_M13        
+  VEDIC_4x4_1_ADDER_6x6_2_4x4_1_FA_1_HA2_N09404
+  VEDIC_4x4_1_ADDER_6x6_2_4x4_1_FA_1_N00311 Q3 $D_HI MbreakP           
M_VEDIC_4x4_1_ADDER_6x6_2_4x4_1_FA_1_HA2_M3        
+  VEDIC_4x4_1_ADDER_6x6_2_4x4_1_FA_1_N01242
+  VEDIC_4x4_1_ADDER_6x6_2_4x4_1_FA_1_HA2_N06579 0 0 MbreakN           
M_VEDIC_4x4_1_ADDER_6x6_2_4x4_1_FA_1_HA2_M16         $D_HI
+  VEDIC_4x4_1_ADDER_6x6_2_4x4_1_N00531
+  VEDIC_4x4_1_ADDER_6x6_2_4x4_1_FA_1_HA2_N11593 $D_HI MbreakP           
M_VEDIC_4x4_1_ADDER_6x6_2_4x4_1_FA_1_HA2_M8        
+  VEDIC_4x4_1_ADDER_6x6_2_4x4_1_FA_1_HA2_N09076
+  VEDIC_4x4_1_ADDER_6x6_2_4x4_1_FA_1_HA2_N11628 0 0 MbreakN           
M_VEDIC_4x4_1_ADDER_6x6_2_4x4_1_FA_1_HA2_M14         $D_HI
+  VEDIC_4x4_1_ADDER_6x6_2_4x4_1_FA_1_HA2_N11593
+  VEDIC_4x4_1_ADDER_6x6_2_4x4_1_FA_1_HA2_N09404 $D_HI MbreakP           
M_VEDIC_4x4_1_ADDER_6x6_2_4x4_1_FA_1_HA2_M17         $D_HI
+  VEDIC_4x4_1_ADDER_6x6_2_4x4_1_FA_1_N00311
+  VEDIC_4x4_1_ADDER_6x6_2_4x4_1_FA_1_HA2_N11628 $D_HI MbreakP           
M_VEDIC_4x4_1_ADDER_6x6_2_4x4_1_FA_1_HA2_M9         Q3
+  VEDIC_4x4_1_ADDER_6x6_2_4x4_1_N00531
+  VEDIC_4x4_1_ADDER_6x6_2_4x4_1_FA_1_HA2_N09191 0 MbreakN           
M_VEDIC_4x4_1_ADDER_6x6_2_4x4_1_FA_1_HA2_M15         $D_HI
+  VEDIC_4x4_1_ADDER_6x6_2_4x4_1_FA_1_HA2_N11628
+  VEDIC_4x4_1_ADDER_6x6_2_4x4_1_FA_1_HA2_N09404 $D_HI MbreakP           
M_VEDIC_4x4_1_ADDER_6x6_2_4x4_1_FA_1_HA2_M18        
+  VEDIC_4x4_1_ADDER_6x6_2_4x4_1_FA_1_HA2_N11593
+  VEDIC_4x4_1_ADDER_6x6_2_4x4_1_N00531 0 0 MbreakN           
M_VEDIC_4x4_1_ADDER_6x6_2_4x4_1_FA_1_HA2_M10         Q3
+  VEDIC_4x4_1_ADDER_6x6_2_4x4_1_FA_1_HA2_N11593
+  VEDIC_4x4_1_ADDER_6x6_2_4x4_1_FA_1_HA2_N09076 0 MbreakN           
M_VEDIC_4x4_1_ADDER_6x6_2_4x4_1_FA_1_HA2_M19        
+  VEDIC_4x4_1_ADDER_6x6_2_4x4_1_FA_1_HA2_N11628
+  VEDIC_4x4_1_ADDER_6x6_2_4x4_1_FA_1_N00311 0 0 MbreakN           
M_VEDIC_4x4_1_ADDER_6x6_2_4x4_1_FA_1_M3        
+  VEDIC_4x4_1_ADDER_6x6_2_4x4_1_FA_1_N01015
+  VEDIC_4x4_1_ADDER_6x6_2_4x4_1_FA_1_N01242
+  VEDIC_4x4_1_ADDER_6x6_2_4x4_1_FA_1_N00946 $D_HI MbreakP           
M_VEDIC_4x4_1_ADDER_6x6_2_4x4_1_FA_1_M2        
+  VEDIC_4x4_1_ADDER_6x6_2_4x4_1_FA_1_N00946
+  VEDIC_4x4_1_ADDER_6x6_2_4x4_1_FA_1_N01242 0 0 MbreakN           
M_VEDIC_4x4_1_ADDER_6x6_2_4x4_1_FA_1_M4         $D_HI
+  VEDIC_4x4_1_ADDER_6x6_2_4x4_1_FA_1_N01184
+  VEDIC_4x4_1_ADDER_6x6_2_4x4_1_FA_1_N01015 $D_HI MbreakP           
M_VEDIC_4x4_1_ADDER_6x6_2_4x4_1_FA_1_M5         $D_HI
+  VEDIC_4x4_1_ADDER_6x6_2_4x4_1_FA_1_N00946 VEDIC_4x4_1_ADDER_6x6_2_4x4_1_N00549
+  $D_HI MbreakP           
M_VEDIC_4x4_1_ADDER_6x6_2_4x4_1_FA_2_M6        
+  VEDIC_4x4_1_ADDER_6x6_2_4x4_1_N00567 VEDIC_4x4_1_ADDER_6x6_2_4x4_1_FA_2_N00946
+  0 0 MbreakN           
M_VEDIC_4x4_1_ADDER_6x6_2_4x4_1_FA_2_HA1_M11        
+  VEDIC_4x4_1_ADDER_6x6_2_4x4_1_FA_2_HA1_N09191 VEDIC_4x4_1_N03010 0 0 MbreakN  
+          
M_VEDIC_4x4_1_ADDER_6x6_2_4x4_1_FA_2_HA1_M5         $D_HI VEDIC_4x4_1_N03010
+  VEDIC_4x4_1_ADDER_6x6_2_4x4_1_FA_2_HA1_N06579 $D_HI MbreakP           
M_VEDIC_4x4_1_ADDER_6x6_2_4x4_1_FA_2_HA1_M2        
+  VEDIC_4x4_1_ADDER_6x6_2_4x4_1_FA_2_HA1_N06008 VEDIC_4x4_1_N03010 0 0 MbreakN  
+          
M_VEDIC_4x4_1_ADDER_6x6_2_4x4_1_FA_2_HA1_M4         $D_HI VEDIC_4x4_1_N02898
+  VEDIC_4x4_1_ADDER_6x6_2_4x4_1_FA_2_HA1_N06579 $D_HI MbreakP           
M_VEDIC_4x4_1_ADDER_6x6_2_4x4_1_FA_2_HA1_M12        
+  VEDIC_4x4_1_ADDER_6x6_2_4x4_1_FA_2_HA1_N09404 VEDIC_4x4_1_N02898
[...]

(VEDIC_4x4_1_VEDIC_2x2_4_AND_1_N06008) 39.14E-06                                

(VEDIC_4x4_1_VEDIC_2x2_4_AND_1_N06579)    5.0000                                

(VEDIC_4x4_1_VEDIC_2x2_4_AND_2_N06008)     .9093                                

(VEDIC_4x4_1_VEDIC_2x2_4_AND_2_N06579)    2.5008                                

(VEDIC_4x4_1_VEDIC_2x2_4_AND_3_N06008)     .0048                                

(VEDIC_4x4_1_VEDIC_2x2_4_AND_3_N06579)    5.0000                                

(VEDIC_4x4_1_VEDIC_2x2_4_AND_4_N06008)    3.3551                                

(VEDIC_4x4_1_VEDIC_2x2_4_AND_4_N06579)    5.0000                                

(VEDIC_4x4_1_ADDER_4X4_1_FA_1_HA1_N06008)-34.02E-09                             

(VEDIC_4x4_1_ADDER_4X4_1_FA_1_HA1_N06579)    5.0000                             

(VEDIC_4x4_1_ADDER_4X4_1_FA_1_HA1_N09076) 300.6E-09                             

(VEDIC_4x4_1_ADDER_4X4_1_FA_1_HA1_N09191)-7.531E-09                             

(VEDIC_4x4_1_ADDER_4X4_1_FA_1_HA1_N09404)     .0010                             

(VEDIC_4x4_1_ADDER_4X4_1_FA_1_HA1_N11593)    5.0000                             

(VEDIC_4x4_1_ADDER_4X4_1_FA_1_HA1_N11628)    5.0000                             

(VEDIC_4x4_1_ADDER_4X4_1_FA_1_HA2_N06008)-1.075E-09                             

(VEDIC_4x4_1_ADDER_4X4_1_FA_1_HA2_N06579)    5.0000                             

(VEDIC_4x4_1_ADDER_4X4_1_FA_1_HA2_N09076) 300.6E-09                             

(VEDIC_4x4_1_ADDER_4X4_1_FA_1_HA2_N09191)-318.4E-12                             

(VEDIC_4x4_1_ADDER_4X4_1_FA_1_HA2_N09404)     .0010                             

(VEDIC_4x4_1_ADDER_4X4_1_FA_1_HA2_N11593)    5.0000                             

(VEDIC_4x4_1_ADDER_4X4_1_FA_1_HA2_N11628)    5.0000                             

(VEDIC_4x4_1_ADDER_4X4_1_FA_2_HA1_N06008)    0.0000                             

(VEDIC_4x4_1_ADDER_4X4_1_FA_2_HA1_N06579)    5.0000                             

(VEDIC_4x4_1_ADDER_4X4_1_FA_2_HA1_N09076) 396.1E-06                             

(VEDIC_4x4_1_ADDER_4X4_1_FA_2_HA1_N09191)-2.946E-12                             

(VEDIC_4x4_1_ADDER_4X4_1_FA_2_HA1_N09404)     .1442                             

(VEDIC_4x4_1_ADDER_4X4_1_FA_2_HA1_N11593)    5.0000                             

(VEDIC_4x4_1_ADDER_4X4_1_FA_2_HA1_N11628)    4.9375                             

(VEDIC_4x4_1_ADDER_4X4_1_FA_2_HA2_N06008)-6.729E-12                             

(VEDIC_4x4_1_ADDER_4X4_1_FA_2_HA2_N06579)    5.0000                             

(VEDIC_4x4_1_ADDER_4X4_1_FA_2_HA2_N09076)-13.55E-06                             

(VEDIC_4x4_1_ADDER_4X4_1_FA_2_HA2_N09191)   -3.1096                             

(VEDIC_4x4_1_ADDER_4X4_1_FA_2_HA2_N09404)     .1669                             

(VEDIC_4x4_1_ADDER_4X4_1_FA_2_HA2_N11593)    5.0000                             

(VEDIC_4x4_1_ADDER_4X4_1_FA_2_HA2_N11628)    5.0000                             

(VEDIC_4x4_1_ADDER_4X4_1_FA_3_HA1_N06008)-61.90E-09                             

(VEDIC_4x4_1_ADDER_4X4_1_FA_3_HA1_N06579)    5.0000                             

(VEDIC_4x4_1_ADDER_4X4_1_FA_3_HA1_N09076) 300.6E-09                             

(VEDIC_4x4_1_ADDER_4X4_1_FA_3_HA1_N09191)-77.18E-09                             

(VEDIC_4x4_1_ADDER_4X4_1_FA_3_HA1_N09404)     .0010                             

(VEDIC_4x4_1_ADDER_4X4_1_FA_3_HA1_N11593)    5.0000                             

(VEDIC_4x4_1_ADDER_4X4_1_FA_3_HA1_N11628)    5.0000                             

(VEDIC_4x4_1_ADDER_4X4_1_FA_3_HA2_N06008)-31.37E-09                             

(VEDIC_4x4_1_ADDER_4X4_1_FA_3_HA2_N06579)    5.0000                             

(VEDIC_4x4_1_ADDER_4X4_1_FA_3_HA2_N09076) 300.6E-09                             

(VEDIC_4x4_1_ADDER_4X4_1_FA_3_HA2_N09191)-29.83E-09                             

(VEDIC_4x4_1_ADDER_4X4_1_FA_3_HA2_N09404)     .0010                             

(VEDIC_4x4_1_ADDER_4X4_1_FA_3_HA2_N11593)    5.0000                             

(VEDIC_4x4_1_ADDER_4X4_1_FA_3_HA2_N11628)    5.0000                             

(VEDIC_4x4_1_ADDER_6x6_1_FA_1_HA1_N06008)-3.922E-09                             

(VEDIC_4x4_1_ADDER_6x6_1_FA_1_HA1_N06579)    5.0000                             

(VEDIC_4x4_1_ADDER_6x6_1_FA_1_HA1_N09076) 300.6E-09                             

(VEDIC_4x4_1_ADDER_6x6_1_FA_1_HA1_N09191)-34.64E-09                             

(VEDIC_4x4_1_ADDER_6x6_1_FA_1_HA1_N09404)     .0010                             

(VEDIC_4x4_1_ADDER_6x6_1_FA_1_HA1_N11593)    5.0000                             

(VEDIC_4x4_1_ADDER_6x6_1_FA_1_HA1_N11628)    5.0000                             

(VEDIC_4x4_1_ADDER_6x6_1_FA_1_HA2_N06008)-901.5E-12                             

(VEDIC_4x4_1_ADDER_6x6_1_FA_1_HA2_N06579)    5.0000                             

(VEDIC_4x4_1_ADDER_6x6_1_FA_1_HA2_N09076) 300.6E-09                             

(VEDIC_4x4_1_ADDER_6x6_1_FA_1_HA2_N09191)-1.638E-09                             

(VEDIC_4x4_1_ADDER_6x6_1_FA_1_HA2_N09404)     .0010                             

(VEDIC_4x4_1_ADDER_6x6_1_FA_1_HA2_N11593)    5.0000                             

(VEDIC_4x4_1_ADDER_6x6_1_FA_1_HA2_N11628)    5.0000                             

(VEDIC_4x4_1_ADDER_6x6_1_FA_2_HA1_N06008)-118.0E-21                             

(VEDIC_4x4_1_ADDER_6x6_1_FA_2_HA1_N06579)    5.0000                             

(VEDIC_4x4_1_ADDER_6x6_1_FA_2_HA1_N09076) 300.6E-09                             

(VEDIC_4x4_1_ADDER_6x6_1_FA_2_HA1_N09191)-135.8E-09                             

(VEDIC_4x4_1_ADDER_6x6_1_FA_2_HA1_N09404)     .0010                             

(VEDIC_4x4_1_ADDER_6x6_1_FA_2_HA1_N11593)    5.0000                             

(VEDIC_4x4_1_ADDER_6x6_1_FA_2_HA1_N11628)    5.0000                             

(VEDIC_4x4_1_ADDER_6x6_1_FA_2_HA2_N06008)-35.14E-09                             

(VEDIC_4x4_1_ADDER_6x6_1_FA_2_HA2_N06579)    5.0000                             

(VEDIC_4x4_1_ADDER_6x6_1_FA_2_HA2_N09076) 300.6E-09                             

(VEDIC_4x4_1_ADDER_6x6_1_FA_2_HA2_N09191)-2.975E-09                             

(VEDIC_4x4_1_ADDER_6x6_1_FA_2_HA2_N09404)     .0010                             

(VEDIC_4x4_1_ADDER_6x6_1_FA_2_HA2_N11593)    5.0000                             

(VEDIC_4x4_1_ADDER_6x6_1_FA_2_HA2_N11628)    5.0000                             

(VEDIC_4x4_1_ADDER_6x6_2_FA_1_HA1_N06008)-87.94E-21                             

(VEDIC_4x4_1_ADDER_6x6_2_FA_1_HA1_N06579)    5.0000                             

(VEDIC_4x4_1_ADDER_6x6_2_FA_1_HA1_N09076) 300.6E-09                             

(VEDIC_4x4_1_ADDER_6x6_2_FA_1_HA1_N09191)-20.17E-09                             

(VEDIC_4x4_1_ADDER_6x6_2_FA_1_HA1_N09404)     .0010                             

(VEDIC_4x4_1_ADDER_6x6_2_FA_1_HA1_N11593)    5.0000                             

(VEDIC_4x4_1_ADDER_6x6_2_FA_1_HA1_N11628)    5.0000                             

(VEDIC_4x4_1_ADDER_6x6_2_FA_1_HA2_N06008)-28.19E-09                             

(VEDIC_4x4_1_ADDER_6x6_2_FA_1_HA2_N06579)    5.0000                             

(VEDIC_4x4_1_ADDER_6x6_2_FA_1_HA2_N09076) 300.6E-09                             

(VEDIC_4x4_1_ADDER_6x6_2_FA_1_HA2_N09191)-2.974E-09                             

(VEDIC_4x4_1_ADDER_6x6_2_FA_1_HA2_N09404)     .0010                             

(VEDIC_4x4_1_ADDER_6x6_2_FA_1_HA2_N11593)    5.0000                             

(VEDIC_4x4_1_ADDER_6x6_2_FA_1_HA2_N11628)    5.0000                             

(VEDIC_4x4_1_ADDER_6x6_2_FA_2_HA1_N06008)-269.1E-15                             

(VEDIC_4x4_1_ADDER_6x6_2_FA_2_HA1_N06579)    5.0000                             

(VEDIC_4x4_1_ADDER_6x6_2_FA_2_HA1_N09076) 300.6E-09                             

(VEDIC_4x4_1_ADDER_6x6_2_FA_2_HA1_N09191)-5.851E-09                             

(VEDIC_4x4_1_ADDER_6x6_2_FA_2_HA1_N09404)     .0010                             

(VEDIC_4x4_1_ADDER_6x6_2_FA_2_HA1_N11593)    5.0000                             

(VEDIC_4x4_1_ADDER_6x6_2_FA_2_HA1_N11628)    5.0000                             

(VEDIC_4x4_1_ADDER_6x6_2_FA_2_HA2_N06008)-2.302E-09                             

(VEDIC_4x4_1_ADDER_6x6_2_FA_2_HA2_N06579)    5.0000                             

(VEDIC_4x4_1_ADDER_6x6_2_FA_2_HA2_N09076) 300.6E-09                             

(VEDIC_4x4_1_ADDER_6x6_2_FA_2_HA2_N09191)-2.516E-09                             

(VEDIC_4x4_1_ADDER_6x6_2_FA_2_HA2_N09404)     .0010                             

(VEDIC_4x4_1_ADDER_6x6_2_FA_2_HA2_N11593)    5.0000                             

(VEDIC_4x4_1_ADDER_6x6_2_FA_2_HA2_N11628)    5.0000                             

(VEDIC_4x4_1_ADDER_6x6_1_4x4_1_FA_1_N00311)    -.1742                           

(VEDIC_4x4_1_ADDER_6x6_1_4x4_1_FA_1_N00946)    5.0000                           

(VEDIC_4x4_1_ADDER_6x6_1_4x4_1_FA_1_N01015)    5.0000                           

(VEDIC_4x4_1_ADDER_6x6_1_4x4_1_FA_1_N01184) 50.10E-09                           

(VEDIC_4x4_1_ADDER_6x6_1_4x4_1_FA_1_N01242) 50.10E-09                           

(VEDIC_4x4_1_ADDER_6x6_1_4x4_1_FA_2_N00311) 601.1E-09                           

(VEDIC_4x4_1_ADDER_6x6_1_4x4_1_FA_2_N00946)    5.0000                           

(VEDIC_4x4_1_ADDER_6x6_1_4x4_1_FA_2_N01015)    5.0000                           

(VEDIC_4x4_1_ADDER_6x6_1_4x4_1_FA_2_N01184) 50.10E-09                           

(VEDIC_4x4_1_ADDER_6x6_1_4x4_1_FA_2_N01242) 50.10E-09                           

(VEDIC_4x4_1_ADDER_6x6_1_4x4_1_FA_3_N00311) 871.6E-06                           

(VEDIC_4x4_1_ADDER_6x6_1_4x4_1_FA_3_N00946)    5.0000                           

(VEDIC_4x4_1_ADDER_6x6_1_4x4_1_FA_3_N01015)    5.0000                           

(VEDIC_4x4_1_ADDER_6x6_1_4x4_1_FA_3_N01184) 50.10E-09                           

(VEDIC_4x4_1_ADDER_6x6_1_4x4_1_FA_3_N01242) 50.10E-09                           

(VEDIC_4x4_1_ADDER_6x6_1_4x4_1_HA_1_N06008)-108.1E-09                           

(VEDIC_4x4_1_ADDER_6x6_1_4x4_1_HA_1_N06579)    5.0000                           

(VEDIC_4x4_1_ADDER_6x6_1_4x4_1_HA_1_N09076) 300.6E-09                           

(VEDIC_4x4_1_ADDER_6x6_1_4x4_1_HA_1_N09191)-156.9E-09                           

(VEDIC_4x4_1_ADDER_6x6_1_4x4_1_HA_1_N09404)     .0010                           

(VEDIC_4x4_1_ADDER_6x6_1_4x4_1_HA_1_N11593)    5.0000                           

(VEDIC_4x4_1_ADDER_6x6_1_4x4_1_HA_1_N11628)    5.0000                           

(VEDIC_4x4_1_ADDER_6x6_2_4x4_1_FA_1_N00311)-674.8E-06                           

(VEDIC_4x4_1_ADDER_6x6_2_4x4_1_FA_1_N00946)    5.0000                           

(VEDIC_4x4_1_ADDER_6x6_2_4x4_1_FA_1_N01015)    5.0000                           

(VEDIC_4x4_1_ADDER_6x6_2_4x4_1_FA_1_N01184) 50.10E-09                           

(VEDIC_4x4_1_ADDER_6x6_2_4x4_1_FA_1_N01242) 50.10E-09                           

(VEDIC_4x4_1_ADDER_6x6_2_4x4_1_FA_2_N00311)     .4743                           

(VEDIC_4x4_1_ADDER_6x6_2_4x4_1_FA_2_N00946)    5.0000                           

(VEDIC_4x4_1_ADDER_6x6_2_4x4_1_FA_2_N01015)    5.0000                           

(VEDIC_4x4_1_ADDER_6x6_2_4x4_1_FA_2_N01184) 49.43E-09                           

(VEDIC_4x4_1_ADDER_6x6_2_4x4_1_FA_2_N01242) 50.10E-09                           

(VEDIC_4x4_1_ADDER_6x6_2_4x4_1_FA_3_N00311)    -.1263                           

(VEDIC_4x4_1_ADDER_6x6_2_4x4_1_FA_3_N00946)    5.0000                           

(VEDIC_4x4_1_ADDER_6x6_2_4x4_1_FA_3_N01015)    5.0000                           

(VEDIC_4x4_1_ADDER_6x6_2_4x4_1_FA_3_N01184) 50.10E-09                           

(VEDIC_4x4_1_ADDER_6x6_2_4x4_1_FA_3_N01242) 50.10E-09                           

(VEDIC_4x4_1_ADDER_6x6_2_4x4_1_HA_1_N06008)    -.0034                           

(VEDIC_4x4_1_ADDER_6x6_2_4x4_1_HA_1_N06579)    5.0000                           

(VEDIC_4x4_1_ADDER_6x6_2_4x4_1_HA_1_N09076)    -.0265                           

(VEDIC_4x4_1_ADDER_6x6_2_4x4_1_HA_1_N09191)    -.6243                           

(VEDIC_4x4_1_ADDER_6x6_2_4x4_1_HA_1_N09404)    -.0305                           

(VEDIC_4x4_1_ADDER_6x6_2_4x4_1_HA_1_N11593)    5.0000                           

(VEDIC_4x4_1_ADDER_6x6_2_4x4_1_HA_1_N11628)    5.0000                           

(VEDIC_4x4_1_ADDER_6x6_1_4x4_1_FA_1_HA1_N06008)     .7294                       

(VEDIC_4x4_1_ADDER_6x6_1_4x4_1_FA_1_HA1_N06579)    5.0000                       

(VEDIC_4x4_1_ADDER_6x6_1_4x4_1_FA_1_HA1_N09076)    -.0873                       

(VEDIC_4x4_1_ADDER_6x6_1_4x4_1_FA_1_HA1_N09191)    -.5703                       

(VEDIC_4x4_1_ADDER_6x6_1_4x4_1_FA_1_HA1_N09404)     .1208                       

(VEDIC_4x4_1_ADDER_6x6_1_4x4_1_FA_1_HA1_N11593)    4.9342                       

(VEDIC_4x4_1_ADDER_6x6_1_4x4_1_FA_1_HA1_N11628)    5.0000                       

(VEDIC_4x4_1_ADDER_6x6_1_4x4_1_FA_1_HA2_N06008) 6.649E-09                       

(VEDIC_4x4_1_ADDER_6x6_1_4x4_1_FA_1_HA2_N06579)    5.0000                       

(VEDIC_4x4_1_ADDER_6x6_1_4x4_1_FA_1_HA2_N09076)    -.0229                       

(VEDIC_4x4_1_ADDER_6x6_1_4x4_1_FA_1_HA2_N09191)    -.4821                       

(VEDIC_4x4_1_ADDER_6x6_1_4x4_1_FA_1_HA2_N09404)    -.0450                       

(VEDIC_4x4_1_ADDER_6x6_1_4x4_1_FA_1_HA2_N11593)    5.0000                       

(VEDIC_4x4_1_ADDER_6x6_1_4x4_1_FA_1_HA2_N11628)    5.0000                       

(VEDIC_4x4_1_ADDER_6x6_1_4x4_1_FA_2_HA1_N06008) 276.9E-09                       

(VEDIC_4x4_1_ADDER_6x6_1_4x4_1_FA_2_HA1_N06579)    5.0000                       

(VEDIC_4x4_1_ADDER_6x6_1_4x4_1_FA_2_HA1_N09076) 300.6E-09                       

(VEDIC_4x4_1_ADDER_6x6_1_4x4_1_FA_2_HA1_N09191) 282.7E-09                       

(VEDIC_4x4_1_ADDER_6x6_1_4x4_1_FA_2_HA1_N09404)     .0010                       

(VEDIC_4x4_1_ADDER_6x6_1_4x4_1_FA_2_HA1_N11593)    5.0000                       

(VEDIC_4x4_1_ADDER_6x6_1_4x4_1_FA_2_HA1_N11628)    5.0000                       

(VEDIC_4x4_1_ADDER_6x6_1_4x4_1_FA_2_HA2_N06008) 1.592E-09                       

(VEDIC_4x4_1_ADDER_6x6_1_4x4_1_FA_2_HA2_N06579)    5.0000                       

(VEDIC_4x4_1_ADDER_6x6_1_4x4_1_FA_2_HA2_N09076) 300.6E-09                       

(VEDIC_4x4_1_ADDER_6x6_1_4x4_1_FA_2_HA2_N09191)-2.975E-09                       

(VEDIC_4x4_1_ADDER_6x6_1_4x4_1_FA_2_HA2_N09404)     .0010                       

(VEDIC_4x4_1_ADDER_6x6_1_4x4_1_FA_2_HA2_N11593)    5.0000                       

(VEDIC_4x4_1_ADDER_6x6_1_4x4_1_FA_2_HA2_N11628)    5.0000                       

(VEDIC_4x4_1_ADDER_6x6_1_4x4_1_FA_3_HA1_N06008) 1.684E-15                       

(VEDIC_4x4_1_ADDER_6x6_1_4x4_1_FA_3_HA1_N06579)    5.0000                       

(VEDIC_4x4_1_ADDER_6x6_1_4x4_1_FA_3_HA1_N09076) 438.7E-06                       

(VEDIC_4x4_1_ADDER_6x6_1_4x4_1_FA_3_HA1_N09191)-654.7E-15                       

(VEDIC_4x4_1_ADDER_6x6_1_4x4_1_FA_3_HA1_N09404)     .1202                       

(VEDIC_4x4_1_ADDER_6x6_1_4x4_1_FA_3_HA1_N11593)    5.0000                       

(VEDIC_4x4_1_ADDER_6x6_1_4x4_1_FA_3_HA1_N11628)    4.9342                       

(VEDIC_4x4_1_ADDER_6x6_1_4x4_1_FA_3_HA2_N06008) 1.026E-12                       

(VEDIC_4x4_1_ADDER_6x6_1_4x4_1_FA_3_HA2_N06579)    5.0000                       

(VEDIC_4x4_1_ADDER_6x6_1_4x4_1_FA_3_HA2_N09076)    -.0227                       

(VEDIC_4x4_1_ADDER_6x6_1_4x4_1_FA_3_HA2_N09191)    -.4792                       

(VEDIC_4x4_1_ADDER_6x6_1_4x4_1_FA_3_HA2_N09404)    5.0100                       

(VEDIC_4x4_1_ADDER_6x6_1_4x4_1_FA_3_HA2_N11593)    5.0000                       

(VEDIC_4x4_1_ADDER_6x6_1_4x4_1_FA_3_HA2_N11628)    5.0000                       

(VEDIC_4x4_1_ADDER_6x6_2_4x4_1_FA_1_HA1_N06008) 244.2E-09                       

(VEDIC_4x4_1_ADDER_6x6_2_4x4_1_FA_1_HA1_N06579)    5.0000                       

(VEDIC_4x4_1_ADDER_6x6_2_4x4_1_FA_1_HA1_N09076)-379.2E-06                       

(VEDIC_4x4_1_ADDER_6x6_2_4x4_1_FA_1_HA1_N09191)     .0021                       

(VEDIC_4x4_1_ADDER_6x6_2_4x4_1_FA_1_HA1_N09404) 4774.5000                       

(VEDIC_4x4_1_ADDER_6x6_2_4x4_1_FA_1_HA1_N11593)    5.0000                       

(VEDIC_4x4_1_ADDER_6x6_2_4x4_1_FA_1_HA1_N11628)    5.0002                       

(VEDIC_4x4_1_ADDER_6x6_2_4x4_1_FA_1_HA2_N06008) 6.649E-09                       

(VEDIC_4x4_1_ADDER_6x6_2_4x4_1_FA_1_HA2_N06579)    5.0000                       

(VEDIC_4x4_1_ADDER_6x6_2_4x4_1_FA_1_HA2_N09076)    -.8012                       

(VEDIC_4x4_1_ADDER_6x6_2_4x4_1_FA_1_HA2_N09191) 6.770E-09                       

(VEDIC_4x4_1_ADDER_6x6_2_4x4_1_FA_1_HA2_N09404)    3.6128                       

(VEDIC_4x4_1_ADDER_6x6_2_4x4_1_FA_1_HA2_N11593)    5.0000                       

(VEDIC_4x4_1_ADDER_6x6_2_4x4_1_FA_1_HA2_N11628)   25.2540                       

(VEDIC_4x4_1_ADDER_6x6_2_4x4_1_FA_2_HA1_N06008)    -.0132                       

(VEDIC_4x4_1_ADDER_6x6_2_4x4_1_FA_2_HA1_N06579)    5.0000                       

(VEDIC_4x4_1_ADDER_6x6_2_4x4_1_FA_2_HA1_N09076)    -.1542                       

(VEDIC_4x4_1_ADDER_6x6_2_4x4_1_FA_2_HA1_N09191)    -.5709                       

(VEDIC_4x4_1_ADDER_6x6_2_4x4_1_FA_2_HA1_N09404)     .5191                       

(VEDIC_4x4_1_ADDER_6x6_2_4x4_1_FA_2_HA1_N11593)    5.0008                       

(VEDIC_4x4_1_ADDER_6x6_2_4x4_1_FA_2_HA1_N11628)    5.0000                       

(VEDIC_4x4_1_ADDER_6x6_2_4x4_1_FA_2_HA2_N06008) 2.510E-15                       

(VEDIC_4x4_1_ADDER_6x6_2_4x4_1_FA_2_HA2_N06579)    5.0000                       

(VEDIC_4x4_1_ADDER_6x6_2_4x4_1_FA_2_HA2_N09076)   -1.4423                       

(VEDIC_4x4_1_ADDER_6x6_2_4x4_1_FA_2_HA2_N09191) 2.466E-15                       

(VEDIC_4x4_1_ADDER_6x6_2_4x4_1_FA_2_HA2_N09404)     .5946                       

(VEDIC_4x4_1_ADDER_6x6_2_4x4_1_FA_2_HA2_N11593)    5.0000                       

(VEDIC_4x4_1_ADDER_6x6_2_4x4_1_FA_2_HA2_N11628)    4.9744                       

(VEDIC_4x4_1_ADDER_6x6_2_4x4_1_FA_3_HA1_N06008) 244.2E-09                       

(VEDIC_4x4_1_ADDER_6x6_2_4x4_1_FA_3_HA1_N06579)    5.0000                       

(VEDIC_4x4_1_ADDER_6x6_2_4x4_1_FA_3_HA1_N09076)    -.0054                       

(VEDIC_4x4_1_ADDER_6x6_2_4x4_1_FA_3_HA1_N09191)  200.4600                       

(VEDIC_4x4_1_ADDER_6x6_2_4x4_1_FA_3_HA1_N09404)    -.1263                       

(VEDIC_4x4_1_ADDER_6x6_2_4x4_1_FA_3_HA1_N11593)    5.0000                       

(VEDIC_4x4_1_ADDER_6x6_2_4x4_1_FA_3_HA1_N11628)    5.0002                       

(VEDIC_4x4_1_ADDER_6x6_2_4x4_1_FA_3_HA2_N06008) 627.5E-18                       

(VEDIC_4x4_1_ADDER_6x6_2_4x4_1_FA_3_HA2_N06579)    5.0000                       

(VEDIC_4x4_1_ADDER_6x6_2_4x4_1_FA_3_HA2_N09076)    -.6836                       

(VEDIC_4x4_1_ADDER_6x6_2_4x4_1_FA_3_HA2_N09191) 627.5E-18                       

(VEDIC_4x4_1_ADDER_6x6_2_4x4_1_FA_3_HA2_N09404)    4.0568                       

(VEDIC_4x4_1_ADDER_6x6_2_4x4_1_FA_3_HA2_N11593)    5.0000                       

(VEDIC_4x4_1_ADDER_6x6_2_4x4_1_FA_3_HA2_N11628)    5.0268                   



 DGTL NODE : STATE  DGTL NODE : STATE  DGTL NODE : STATE  DGTL NODE : STATE


(  N24463) : 1     (N21832$AtoD) : 0  (  N24509) : 0     ( Q2$AtoD) : 1         

(N21875$AtoD) : 1  ( Q6$AtoD) : 0     (  N26720) : 1     (N21875$AtoD3) : 1     

(  N26751) : 0     (N22202$AtoD) : 0  (N21875$AtoD4) : 1                        

(  N26713) : 1     ( Q3$AtoD) : 1     (  N24516) : 1     ( Q0$AtoD) : 0         

( Q7$AtoD) : 0     (  N24456) : 0     (  N24477) : 1     ( Q4$AtoD) : 1         

(N22202$AtoD2) : 0                    (  N24530) : 0     ( Q1$AtoD) : 0         

(  N26744) : 0     (  N26734) : 1     (  N24523) : 1     (  N26706) : 0         

(  N26727) : 1     (  N24470) : 0     (N21875$AtoD2) : 1                        

( Q5$AtoD) : 1     (N21832$AtoD2) : 0                    (  N26699) : 0     

