
**** 11/25/20 09:52:24 ********* PSpice 9.2 (Mar 2000) ******** ID# 1 ********

 ** Profile: "MAIN8-test"  [ C:\Users\Karan\Documents\PSpice\VLSI\vlsi-MAIN8-test.sim ] 


 ****     CIRCUIT DESCRIPTION


******************************************************************************




** Creating circuit file "vlsi-MAIN8-test.sim.cir" 
** WARNING: THIS AUTOMATICALLY GENERATED FILE MAY BE OVERWRITTEN BY SUBSEQUENT SIMULATIONS

*Libraries: 
* Local Libraries :
.STMLIB ".\VLSI.stl" 
* From [PSPICE NETLIST] section of C:\Program Files\Orcad 9.1\PSpice\PSpice.ini file:
.lib "nom.lib" 

*Analysis directives: 
.TRAN  0 100ms 0 
.PROBE V(*) I(*) W(*) D(*) NOISE(*) 
.INC ".\vlsi-MAIN8.net" 



**** INCLUDING vlsi-MAIN8.net ****
* source VLSI
V_V3         $D_HI 0 5Vdc
M_VEDIC_8x8_1_VEDIC_4x4_1_VEDIC_2x2_1_AND_1_M5         $D_HI $D_HI
+  VEDIC_8x8_1_VEDIC_4x4_1_VEDIC_2x2_1_AND_1_N06579 $D_HI MbreakP           
M_VEDIC_8x8_1_VEDIC_4x4_1_VEDIC_2x2_1_AND_1_M2        
+  VEDIC_8x8_1_VEDIC_4x4_1_VEDIC_2x2_1_AND_1_N06008 $D_HI 0 0 MbreakN           
M_VEDIC_8x8_1_VEDIC_4x4_1_VEDIC_2x2_1_AND_1_M4         $D_HI $D_HI
+  VEDIC_8x8_1_VEDIC_4x4_1_VEDIC_2x2_1_AND_1_N06579 $D_HI MbreakP           
M_VEDIC_8x8_1_VEDIC_4x4_1_VEDIC_2x2_1_AND_1_M1        
+  VEDIC_8x8_1_VEDIC_4x4_1_VEDIC_2x2_1_AND_1_N06579 $D_HI
+  VEDIC_8x8_1_VEDIC_4x4_1_VEDIC_2x2_1_AND_1_N06008 0 MbreakN           
M_VEDIC_8x8_1_VEDIC_4x4_1_VEDIC_2x2_1_AND_1_M6         $D_HI
+  VEDIC_8x8_1_VEDIC_4x4_1_VEDIC_2x2_1_AND_1_N06579 N16786 $D_HI MbreakP         
+   
M_VEDIC_8x8_1_VEDIC_4x4_1_VEDIC_2x2_1_AND_1_M3         N16786
+  VEDIC_8x8_1_VEDIC_4x4_1_VEDIC_2x2_1_AND_1_N06579 0 0 MbreakN           
M_VEDIC_8x8_1_VEDIC_4x4_1_VEDIC_2x2_1_HA_1_M11        
+  VEDIC_8x8_1_VEDIC_4x4_1_VEDIC_2x2_1_HA_1_N09191
+  VEDIC_8x8_1_VEDIC_4x4_1_VEDIC_2x2_1_N00381 0 0 MbreakN           
M_VEDIC_8x8_1_VEDIC_4x4_1_VEDIC_2x2_1_HA_1_M5         $D_HI
+  VEDIC_8x8_1_VEDIC_4x4_1_VEDIC_2x2_1_N00381
+  VEDIC_8x8_1_VEDIC_4x4_1_VEDIC_2x2_1_HA_1_N06579 $D_HI MbreakP           
M_VEDIC_8x8_1_VEDIC_4x4_1_VEDIC_2x2_1_HA_1_M2        
+  VEDIC_8x8_1_VEDIC_4x4_1_VEDIC_2x2_1_HA_1_N06008
+  VEDIC_8x8_1_VEDIC_4x4_1_VEDIC_2x2_1_N00381 0 0 MbreakN           
M_VEDIC_8x8_1_VEDIC_4x4_1_VEDIC_2x2_1_HA_1_M4         $D_HI
+  VEDIC_8x8_1_VEDIC_4x4_1_VEDIC_2x2_1_N00370
+  VEDIC_8x8_1_VEDIC_4x4_1_VEDIC_2x2_1_HA_1_N06579 $D_HI MbreakP           
M_VEDIC_8x8_1_VEDIC_4x4_1_VEDIC_2x2_1_HA_1_M12        
+  VEDIC_8x8_1_VEDIC_4x4_1_VEDIC_2x2_1_HA_1_N09404
+  VEDIC_8x8_1_VEDIC_4x4_1_VEDIC_2x2_1_N00370 N16793 $D_HI MbreakP           
M_VEDIC_8x8_1_VEDIC_4x4_1_VEDIC_2x2_1_HA_1_M1        
+  VEDIC_8x8_1_VEDIC_4x4_1_VEDIC_2x2_1_HA_1_N06579
+  VEDIC_8x8_1_VEDIC_4x4_1_VEDIC_2x2_1_N00370
+  VEDIC_8x8_1_VEDIC_4x4_1_VEDIC_2x2_1_HA_1_N06008 0 MbreakN           
M_VEDIC_8x8_1_VEDIC_4x4_1_VEDIC_2x2_1_HA_1_M6         $D_HI
+  VEDIC_8x8_1_VEDIC_4x4_1_VEDIC_2x2_1_HA_1_N06579
+  VEDIC_8x8_1_VEDIC_4x4_1_VEDIC_2x2_1_N00445 $D_HI MbreakP           
M_VEDIC_8x8_1_VEDIC_4x4_1_VEDIC_2x2_1_HA_1_M13        
+  VEDIC_8x8_1_VEDIC_4x4_1_VEDIC_2x2_1_HA_1_N09404
+  VEDIC_8x8_1_VEDIC_4x4_1_VEDIC_2x2_1_N00381 N16793 $D_HI MbreakP           
M_VEDIC_8x8_1_VEDIC_4x4_1_VEDIC_2x2_1_HA_1_M3        
+  VEDIC_8x8_1_VEDIC_4x4_1_VEDIC_2x2_1_N00445
+  VEDIC_8x8_1_VEDIC_4x4_1_VEDIC_2x2_1_HA_1_N06579 0 0 MbreakN           
M_VEDIC_8x8_1_VEDIC_4x4_1_VEDIC_2x2_1_HA_1_M16         $D_HI
+  VEDIC_8x8_1_VEDIC_4x4_1_VEDIC_2x2_1_N00370
+  VEDIC_8x8_1_VEDIC_4x4_1_VEDIC_2x2_1_HA_1_N11593 $D_HI MbreakP           
M_VEDIC_8x8_1_VEDIC_4x4_1_VEDIC_2x2_1_HA_1_M8        
+  VEDIC_8x8_1_VEDIC_4x4_1_VEDIC_2x2_1_HA_1_N09076
+  VEDIC_8x8_1_VEDIC_4x4_1_VEDIC_2x2_1_HA_1_N11628 0 0 MbreakN           
M_VEDIC_8x8_1_VEDIC_4x4_1_VEDIC_2x2_1_HA_1_M14         $D_HI
+  VEDIC_8x8_1_VEDIC_4x4_1_VEDIC_2x2_1_HA_1_N11593
+  VEDIC_8x8_1_VEDIC_4x4_1_VEDIC_2x2_1_HA_1_N09404 $D_HI MbreakP           
M_VEDIC_8x8_1_VEDIC_4x4_1_VEDIC_2x2_1_HA_1_M17         $D_HI
+  VEDIC_8x8_1_VEDIC_4x4_1_VEDIC_2x2_1_N00381
+  VEDIC_8x8_1_VEDIC_4x4_1_VEDIC_2x2_1_HA_1_N11628 $D_HI MbreakP           
M_VEDIC_8x8_1_VEDIC_4x4_1_VEDIC_2x2_1_HA_1_M9         N16793
+  VEDIC_8x8_1_VEDIC_4x4_1_VEDIC_2x2_1_N00370
+  VEDIC_8x8_1_VEDIC_4x4_1_VEDIC_2x2_1_HA_1_N09191 0 MbreakN           
M_VEDIC_8x8_1_VEDIC_4x4_1_VEDIC_2x2_1_HA_1_M15         $D_HI
+  VEDIC_8x8_1_VEDIC_4x4_1_VEDIC_2x2_1_HA_1_N11628
+  VEDIC_8x8_1_VEDIC_4x4_1_VEDIC_2x2_1_HA_1_N09404 $D_HI MbreakP           
M_VEDIC_8x8_1_VEDIC_4x4_1_VEDIC_2x2_1_HA_1_M18        
+  VEDIC_8x8_1_VEDIC_4x4_1_VEDIC_2x2_1_HA_1_N11593
+  VEDIC_8x8_1_VEDIC_4x4_1_VEDIC_2x2_1_N00370 0 0 MbreakN           
M_VEDIC_8x8_1_VEDIC_4x4_1_VEDIC_2x2_1_HA_1_M10         N16793
+  VEDIC_8x8_1_VEDIC_4x4_1_VEDIC_2x2_1_HA_1_N11593
+  VEDIC_8x8_1_VEDIC_4x4_1_VEDIC_2x2_1_HA_1_N09076 0 MbreakN           
M_VEDIC_8x8_1_VEDIC_4x4_1_VEDIC_2x2_1_HA_1_M19        
+  VEDIC_8x8_1_VEDIC_4x4_1_VEDIC_2x2_1_HA_1_N11628
+  VEDIC_8x8_1_VEDIC_4x4_1_VEDIC_2x2_1_N00381 0 0 MbreakN           
M_VEDIC_8x8_1_VEDIC_4x4_1_VEDIC_2x2_1_AND_2_M5         $D_HI $D_HI
+  VEDIC_8x8_1_VEDIC_4x4_1_VEDIC_2x2_1_AND_2_N06579 $D_HI MbreakP           
M_VEDIC_8x8_1_VEDIC_4x4_1_VEDIC_2x2_1_AND_2_M2        
+  VEDIC_8x8_1_VEDIC_4x4_1_VEDIC_2x2_1_AND_2_N06008 $D_HI 0 0 MbreakN           
M_VEDIC_8x8_1_VEDIC_4x4_1_VEDIC_2x2_1_AND_2_M4         $D_HI $D_HI
+  VEDIC_8x8_1_VEDIC_4x4_1_VEDIC_2x2_1_AND_2_N06579 $D_HI MbreakP           
M_VEDIC_8x8_1_VEDIC_4x4_1_VEDIC_2x2_1_AND_2_M1        
+  VEDIC_8x8_1_VEDIC_4x4_1_VEDIC_2x2_1_AND_2_N06579 $D_HI
+  VEDIC_8x8_1_VEDIC_4x4_1_VEDIC_2x2_1_AND_2_N06008 0 MbreakN           
M_VEDIC_8x8_1_VEDIC_4x4_1_VEDIC_2x2_1_AND_2_M6         $D_HI
+  VEDIC_8x8_1_VEDIC_4x4_1_VEDIC_2x2_1_AND_2_N06579
+  VEDIC_8x8_1_VEDIC_4x4_1_VEDIC_2x2_1_N00370 $D_HI MbreakP           
M_VEDIC_8x8_1_VEDIC_4x4_1_VEDIC_2x2_1_AND_2_M3        
+  VEDIC_8x8_1_VEDIC_4x4_1_VEDIC_2x2_1_N00370
+  VEDIC_8x8_1_VEDIC_4x4_1_VEDIC_2x2_1_AND_2_N06579 0 0 MbreakN           
M_VEDIC_8x8_1_VEDIC_4x4_1_VEDIC_2x2_1_AND_3_M5         $D_HI $D_HI
+  VEDIC_8x8_1_VEDIC_4x4_1_VEDIC_2x2_1_AND_3_N06579 $D_HI MbreakP           
M_VEDIC_8x8_1_VEDIC_4x4_1_VEDIC_2x2_1_AND_3_M2        
+  VEDIC_8x8_1_VEDIC_4x4_1_VEDIC_2x2_1_AND_3_N06008 $D_HI 0 0 MbreakN           
M_VEDIC_8x8_1_VEDIC_4x4_1_VEDIC_2x2_1_AND_3_M4         $D_HI $D_HI
+  VEDIC_8x8_1_VEDIC_4x4_1_VEDIC_2x2_1_AND_3_N06579 $D_HI MbreakP           
M_VEDIC_8x8_1_VEDIC_4x4_1_VEDIC_2x2_1_AND_3_M1        
+  VEDIC_8x8_1_VEDIC_4x4_1_VEDIC_2x2_1_AND_3_N06579 $D_HI
+  VEDIC_8x8_1_VEDIC_4x4_1_VEDIC_2x2_1_AND_3_N06008 0 MbreakN           
M_VEDIC_8x8_1_VEDIC_4x4_1_VEDIC_2x2_1_AND_3_M6         $D_HI
+  VEDIC_8x8_1_VEDIC_4x4_1_VEDIC_2x2_1_AND_3_N06579
+  VEDIC_8x8_1_VEDIC_4x4_1_VEDIC_2x2_1_N00381 $D_HI MbreakP           
M_VEDIC_8x8_1_VEDIC_4x4_1_VEDIC_2x2_1_AND_3_M3        
+  VEDIC_8x8_1_VEDIC_4x4_1_VEDIC_2x2_1_N00381
+  VEDIC_8x8_1_VEDIC_4x4_1_VEDIC_2x2_1_AND_3_N06579 0 0 MbreakN           
M_VEDIC_8x8_1_VEDIC_4x4_1_VEDIC_2x2_1_HA_2_M11        
+  VEDIC_8x8_1_VEDIC_4x4_1_VEDIC_2x2_1_HA_2_N09191
+  VEDIC_8x8_1_VEDIC_4x4_1_VEDIC_2x2_1_N00417 0 0 MbreakN           
M_VEDIC_8x8_1_VEDIC_4x4_1_VEDIC_2x2_1_HA_2_M5         $D_HI
+  VEDIC_8x8_1_VEDIC_4x4_1_VEDIC_2x2_1_N00417
+  VEDIC_8x8_1_VEDIC_4x4_1_VEDIC_2x2_1_HA_2_N06579 $D_HI MbreakP           
M_VEDIC_8x8_1_VEDIC_4x4_1_VEDIC_2x2_1_HA_2_M2        
+  VEDIC_8x8_1_VEDIC_4x4_1_VEDIC_2x2_1_HA_2_N06008
+  VEDIC_8x8_1_VEDIC_4x4_1_VEDIC_2x2_1_N00417 0 0 MbreakN           
M_VEDIC_8x8_1_VEDIC_4x4_1_VEDIC_2x2_1_HA_2_M4         $D_HI
+  VEDIC_8x8_1_VEDIC_4x4_1_VEDIC_2x2_1_N00445
+  VEDIC_8x8_1_VEDIC_4x4_1_VEDIC_2x2_1_HA_2_N06579 $D_HI MbreakP           
M_VEDIC_8x8_1_VEDIC_4x4_1_VEDIC_2x2_1_HA_2_M12        
+  VEDIC_8x8_1_VEDIC_4x4_1_VEDIC_2x2_1_HA_2_N09404
+  VEDIC_8x8_1_VEDIC_4x4_1_VEDIC_2x2_1_N00445 VEDIC_8x8_1_VEDIC_4x4_1_N00459
+  $D_HI MbreakP           
M_VEDIC_8x8_1_VEDIC_4x4_1_VEDIC_2x2_1_HA_2_M1        
+  VEDIC_8x8_1_VEDIC_4x4_1_VEDIC_2x2_1_HA_2_N06579
+  VEDIC_8x8_1_VEDIC_4x4_1_VEDIC_2x2_1_N00445
+  VEDIC_8x8_1_VEDIC_4x4_1_VEDIC_2x2_1_HA_2_N06008 0 MbreakN           
M_VEDIC_8x8_1_VEDIC_4x4_1_VEDIC_2x2_1_HA_2_M6         $D_HI
+  VEDIC_8x8_1_VEDIC_4x4_1_VEDIC_2x2_1_HA_2_N06579 VEDIC_8x8_1_VEDIC_4x4_1_N00477
+  $D_HI MbreakP           
M_VEDIC_8x8_1_VEDIC_4x4_1_VEDIC_2x2_1_HA_2_M13        
+  VEDIC_8x8_1_VEDIC_4x4_1_VEDIC_2x2_1_HA_2_N09404
+  VEDIC_8x8_1_VEDIC_4x4_1_VEDIC_2x2_1_N00417 VEDIC_8x8_1_VEDIC_4x4_1_N00459
+  $D_HI MbreakP           
M_VEDIC_8x8_1_VEDIC_4x4_1_VEDIC_2x2_1_HA_2_M3        
+  VEDIC_8x8_1_VEDIC_4x4_1_N00477 VEDIC_8x8_1_VEDIC_4x4_1_VEDIC_2x2_1_HA_2_N06579
+  0 0 MbreakN           
M_VEDIC_8x8_1_VEDIC_4x4_1_VEDIC_2x2_1_HA_2_M16         $D_HI
+  VEDIC_8x8_1_VEDIC_4x4_1_VEDIC_2x2_1_N00445
+  VEDIC_8x8_1_VEDIC_4x4_1_VEDIC_2x2_1_HA_2_N11593 $D_HI MbreakP           
M_VEDIC_8x8_1_VEDIC_4x4_1_VEDIC_2x2_1_HA_2_M8        
+  VEDIC_8x8_1_VEDIC_4x4_1_VEDIC_2x2_1_HA_2_N09076
+  VEDIC_8x8_1_VEDIC_4x4_1_VEDIC_2x2_1_HA_2_N11628 0 0 MbreakN           
M_VEDIC_8x8_1_VEDIC_4x4_1_VEDIC_2x2_1_HA_2_M14         $D_HI
+  VEDIC_8x8_1_VEDIC_4x4_1_VEDIC_2x2_1_HA_2_N11593
+  VEDIC_8x8_1_VEDIC_4x4_1_VEDIC_2x2_1_HA_2_N09404 $D_HI MbreakP           
M_VEDIC_8x8_1_VEDIC_4x4_1_VEDIC_2x2_1_HA_2_M17         $D_HI
+  VEDIC_8x8_1_VEDIC_4x4_1_VEDIC_2x2_1_N00417
+  VEDIC_8x8_1_VEDIC_4x4_1_VEDIC_2x2_1_HA_2_N11628 $D_HI MbreakP           
M_VEDIC_8x8_1_VEDIC_4x4_1_VEDIC_2x2_1_HA_2_M9        
+  VEDIC_8x8_1_VEDIC_4x4_1_N00459 VEDIC_8x8_1_VEDIC_4x4_1_VEDIC_2x2_1_N00445
+  VEDIC_8x8_1_VEDIC_4x4_1_VEDIC_2x2_1_HA_2_N09191 0 MbreakN           
M_VEDIC_8x8_1_VEDIC_4x4_1_VEDIC_2x2_1_HA_2_M15         $D_HI
+  VEDIC_8x8_1_VEDIC_4x4_1_VEDIC_2x2_1_HA_2_N11628
+  VEDIC_8x8_1_VEDIC_4x4_1_VEDIC_2x2_1_HA_2_N09404 $D_HI MbreakP           
M_VEDIC_8x8_1_VEDIC_4x4_1_VEDIC_2x2_1_HA_2_M18        
+  VEDIC_8x8_1_VEDIC_4x4_1_VEDIC_2x2_1_HA_2_N11593
+  VEDIC_8x8_1_VEDIC_4x4_1_VEDIC_2x2_1_N00445 0 0 MbreakN           
M_VEDIC_8x8_1_VEDIC_4x4_1_VEDIC_2x2_1_HA_2_M10        
+  VEDIC_8x8_1_VEDIC_4x4_1_N00459 VEDIC_8x8_1_VEDIC_4x4_1_VEDIC_2x2_1_HA_2_N11593
+  VEDIC_8x8_1_VEDIC_4x4_1_VEDIC_2x2_1_HA_2_N09076 0 MbreakN           
M_VEDIC_8x8_1_VEDIC_4x4_1_VEDIC_2x2_1_HA_2_M19        
+  VEDIC_8x8_1_VEDIC_4x4_1_VEDIC_2x2_1_HA_2_N11628
+  VEDIC_8x8_1_VEDIC_4x4_1_VEDIC_2x2_1_N00417 0 0 MbreakN           
M_VEDIC_8x8_1_VEDIC_4x4_1_VEDIC_2x2_1_AND_4_M5         $D_HI $D_HI
+  VEDIC_8x8_1_VEDIC_4x4_1_VEDIC_2x2_1_AND_4_N06579 $D_HI MbreakP           
M_VEDIC_8x8_1_VEDIC_4x4_1_VEDIC_2x2_1_AND_4_M2        
+  VEDIC_8x8_1_VEDIC_4x4_1_VEDIC_2x2_1_AND_4_N06008 $D_HI 0 0 MbreakN           
M_VEDIC_8x8_1_VEDIC_4x4_1_VEDIC_2x2_1_AND_4_M4         $D_HI $D_HI
+  VEDIC_8x8_1_VEDIC_4x4_1_VEDIC_2x2_1_AND_4_N06579 $D_HI MbreakP           
M_VEDIC_8x8_1_VEDIC_4x4_1_VEDIC_2x2_1_AND_4_M1        
+  VEDIC_8x8_1_VEDIC_4x4_1_VEDIC_2x2_1_AND_4_N06579 $D_HI
+  VEDIC_8x8_1_VEDIC_4x4_1_VEDIC_2x2_1_AND_4_N06008 0 MbreakN           
M_VEDIC_8x8_1_VEDIC_4x4_1_VEDIC_2x2_1_AND_4_M6         $D_HI
+  VEDIC_8x8_1_VEDIC_4x4_1_VEDIC_2x2_1_AND_4_N06579
+  VEDIC_8x8_1_VEDIC_4x4_1_VEDIC_2x2_1_N00417 $D_HI MbreakP           
M_VEDIC_8x8_1_VEDIC_4x4_1_VEDIC_2x2_1_AND_4_M3        
+  VEDIC_8x8_1_VEDIC_4x4_1_VEDIC_2x2_1_N00417
+  VEDIC_8x8_1_VEDIC_4x4_1_VEDIC_2x2_1_AND_4_N06579 0 0 MbreakN           
M_VEDIC_8x8_1_VEDIC_4x4_1_ADDER_6x6_1_4x4_1_HA_1_M11        
+  VEDIC_8x8_1_VEDIC_4x4_1_ADDER_6x6_1_4x4_1_HA_1_N09191 0 0 0 MbreakN           
M_VEDIC_8x8_1_VEDIC_4x4_1_ADDER_6x6_1_4x4_1_HA_1_M5         $D_HI 0
+  VEDIC_8x8_1_VEDIC_4x4_1_ADDER_6x6_1_4x4_1_HA_1_N06579 $D_HI MbreakP           
M_VEDIC_8x8_1_VEDIC_4x4_1_ADDER_6x6_1_4x4_1_HA_1_M2        
+  VEDIC_8x8_1_VEDIC_4x4_1_ADDER_6x6_1_4x4_1_HA_1_N06008 0 0 0 MbreakN           
M_VEDIC_8x8_1_VEDIC_4x4_1_ADDER_6x6_1_4x4_1_HA_1_M4         $D_HI
+  VEDIC_8x8_1_VEDIC_4x4_1_N01971
+  VEDIC_8x8_1_VEDIC_4x4_1_ADDER_6x6_1_4x4_1_HA_1_N06579 $D_HI MbreakP           
M_VEDIC_8x8_1_VEDIC_4x4_1_ADDER_6x6_1_4x4_1_HA_1_M12        
+  VEDIC_8x8_1_VEDIC_4x4_1_ADDER_6x6_1_4x4_1_HA_1_N09404
+  VEDIC_8x8_1_VEDIC_4x4_1_N01971 VEDIC_8x8_1_VEDIC_4x4_1_N02988 $D_HI MbreakP   
+         
M_VEDIC_8x8_1_VEDIC_4x4_1_ADDER_6x6_1_4x4_1_HA_1_M1        
+  VEDIC_8x8_1_VEDIC_4x4_1_ADDER_6x6_1_4x4_1_HA_1_N06579
+  VEDIC_8x8_1_VEDIC_4x4_1_N01971
+  VEDIC_8x8_1_VEDIC_4x4_1_ADDER_6x6_1_4x4_1_HA_1_N06008 0 MbreakN           
M_VEDIC_8x8_1_VEDIC_4x4_1_ADDER_6x6_1_4x4_1_HA_1_M6         $D_HI
+  VEDIC_8x8_1_VEDIC_4x4_1_ADDER_6x6_1_4x4_1_HA_1_N06579
+  VEDIC_8x8_1_VEDIC_4x4_1_ADDER_6x6_1_4x4_1_N00531 $D_HI MbreakP           
M_VEDIC_8x8_1_VEDIC_4x4_1_ADDER_6x6_1_4x4_1_HA_1_M13        
+  VEDIC_8x8_1_VEDIC_4x4_1_ADDER_6x6_1_4x4_1_HA_1_N09404 0
+  VEDIC_8x8_1_VEDIC_4x4_1_N02988 $D_HI MbreakP           
M_VEDIC_8x8_1_VEDIC_4x4_1_ADDER_6x6_1_4x4_1_HA_1_M3        
+  VEDIC_8x8_1_VEDIC_4x4_1_ADDER_6x6_1_4x4_1_N00531
+  VEDIC_8x8_1_VEDIC_4x4_1_ADDER_6x6_1_4x4_1_HA_1_N06579 0 0 MbreakN           
M_VEDIC_8x8_1_VEDIC_4x4_1_ADDER_6x6_1_4x4_1_HA_1_M16         $D_HI
+  VEDIC_8x8_1_VEDIC_4x4_1_N01971
+  VEDIC_8x8_1_VEDIC_4x4_1_ADDER_6x6_1_4x4_1_HA_1_N11593 $D_HI MbreakP           
M_VEDIC_8x8_1_VEDIC_4x4_1_ADDER_6x6_1_4x4_1_HA_1_M8        
+  VEDIC_8x8_1_VEDIC_4x4_1_ADDER_6x6_1_4x4_1_HA_1_N09076
+  VEDIC_8x8_1_VEDIC_4x4_1_ADDER_6x6_1_4x4_1_HA_1_N11628 0 0 MbreakN           
M_VEDIC_8x8_1_VEDIC_4x4_1_ADDER_6x6_1_4x4_1_HA_1_M14         $D_HI
+  VEDIC_8x8_1_VEDIC_4x4_1_ADDER_6x6_1_4x4_1_HA_1_N11593
+  VEDIC_8x8_1_VEDIC_4x4_1_ADDER_6x6_1_4x4_1_HA_1_N09404 $D_HI MbreakP           
M_VEDIC_8x8_1_VEDIC_4x4_1_ADDER_6x6_1_4x4_1_HA_1_M17         $D_HI 0
+  VEDIC_8x8_1_VEDIC_4x4_1_ADDER_6x6_1_4x4_1_HA_1_N11628 $D_HI MbreakP           
M_VEDIC_8x8_1_VEDIC_4x4_1_ADDER_6x6_1_4x4_1_HA_1_M9        
+  VEDIC_8x8_1_VEDIC_4x4_1_N02988 VEDIC_8x8_1_VEDIC_4x4_1_N01971
+  VEDIC_8x8_1_VEDIC_4x4_1_ADDER_6x6_1_4x4_1_HA_1_N09191 0 MbreakN           
M_VEDIC_8x8_1_VEDIC_4x4_1_ADDER_6x6_1_4x4_1_HA_1_M15         $D_HI
+  VEDIC_8x8_1_VEDIC_4x4_1_ADDER_6x6_1_4x4_1_HA_1_N11628
+  VEDIC_8x8_1_VEDIC_4x4_1_ADDER_6x6_1_4x4_1_HA_1_N09404 $D_HI MbreakP           
M_VEDIC_8x8_1_VEDIC_4x4_1_ADDER_6x6_1_4x4_1_HA_1_M18        
+  VEDIC_8x8_1_VEDIC_4x4_1_ADDER_6x6_1_4x4_1_HA_1_N11593
+  VEDIC_8x8_1_VEDIC_4x4_1_N01971 0 0 MbreakN           
M_VEDIC_8x8_1_VEDIC_4x4_1_ADDER_6x6_1_4x4_1_HA_1_M10        
+  VEDIC_8x8_1_VEDIC_4x4_1_N02988
+  VEDIC_8x8_1_VEDIC_4x4_1_ADDER_6x6_1_4x4_1_HA_1_N11593
+  VEDIC_8x8_1_VEDIC_4x4_1_ADDER_6x6_1_4x4_1_HA_1_N09076 0 MbreakN           
M_VEDIC_8x8_1_VEDIC_4x4_1_ADDER_6x6_1_4x4_1_HA_1_M19        
+  VEDIC_8x8_1_VEDIC_4x4_1_ADDER_6x6_1_4x4_1_HA_1_N11628 0 0 0 MbreakN           
M_VEDIC_8x8_1_VEDIC_4x4_1_ADDER_6x6_1_4x4_1_FA_1_M6        
+  VEDIC_8x8_1_VEDIC_4x4_1_ADDER_6x6_1_4x4_1_N00549
+  VEDIC_8x8_1_VEDIC_4x4_1_ADDER_6x6_1_4x4_1_FA_1_N00946 0 0 MbreakN           
M_VEDIC_8x8_1_VEDIC_4x4_1_ADDER_6x6_1_4x4_1_FA_1_HA1_M11        
+  VEDIC_8x8_1_VEDIC_4x4_1_ADDER_6x6_1_4x4_1_FA_1_HA1_N09191 0 0 0 MbreakN       
+     
M_VEDIC_8x8_1_VEDIC_4x4_1_ADDER_6x6_1_4x4_1_FA_1_HA1_M5         $D_HI 0
+  VEDIC_8x8_1_VEDIC_4x4_1_ADDER_6x6_1_4x4_1_FA_1_HA1_N06579 $D_HI MbreakP       
+     
M_VEDIC_8x8_1_VEDIC_4x4_1_ADDER_6x6_1_4x4_1_FA_1_HA1_M2        
+  VEDIC_8x8_1_VEDIC_4x4_1_ADDER_6x6_1_4x4_1_FA_1_HA1_N06008 0 0 0 MbreakN       
+     
M_VEDIC_8x8_1_VEDIC_4x4_1_ADDER_6x6_1_4x4_1_FA_1_HA1_M4         $D_HI
+  VEDIC_8x8_1_VEDIC_4x4_1_N08177
+  VEDIC_8x8_1_VEDIC_4x4_1_ADDER_6x6_1_4x4_1_FA_1_HA1_N06579 $D_HI MbreakP       
+     
M_VEDIC_8x8_1_VEDIC_4x4_1_ADDER_6x6_1_4x4_1_FA_1_HA1_M12        
+  VEDIC_8x8_1_VEDIC_4x4_1_ADDER_6x6_1_4x4_1_FA_1_HA1_N09404
+  VEDIC_8x8_1_VEDIC_4x4_1_N08177
+  VEDIC_8x8_1_VEDIC_4x4_1_ADDER_6x6_1_4x4_1_FA_1_N00311 $D_HI MbreakP           
M_VEDIC_8x8_1_VEDIC_4x4_1_ADDER_6x6_1_4x4_1_FA_1_HA1_M1        
+  VEDIC_8x8_1_VEDIC_4x4_1_ADDER_6x6_1_4x4_1_FA_1_HA1_N06579
+  VEDIC_8x8_1_VEDIC_4x4_1_N08177
+  VEDIC_8x8_1_VEDIC_4x4_1_ADDER_6x6_1_4x4_1_FA_1_HA1_N06008 0 MbreakN           
M_VEDIC_8x8_1_VEDIC_4x4_1_ADDER_6x6_1_4x4_1_FA_1_HA1_M6         $D_HI
+  VEDIC_8x8_1_VEDIC_4x4_1_ADDER_6x6_1_4x4_1_FA_1_HA1_N06579
+  VEDIC_8x8_1_VEDIC_4x4_1_ADDER_6x6_1_4x4_1_FA_1_N01184 $D_HI MbreakP           
M_VEDIC_8x8_1_VEDIC_4x4_1_ADDER_6x6_1_4x4_1_FA_1_HA1_M13        
+  VEDIC_8x8_1_VEDIC_4x4_1_ADDER_6x6_1_4x4_1_FA_1_HA1_N09404 0
+  VEDIC_8x8_1_VEDIC_4x4_1_ADDER_6x6_1_4x4_1_FA_1_N00311 $D_HI MbreakP           
M_VEDIC_8x8_1_VEDIC_4x4_1_ADDER_6x6_1_4x4_1_FA_1_HA1_M3        
+  VEDIC_8x8_1_VEDIC_4x4_1_ADDER_6x6_1_4x4_1_FA_1_N01184
+  VEDIC_8x8_1_VEDIC_4x4_1_ADDER_6x6_1_4x4_1_FA_1_HA1_N06579 0 0 MbreakN         
+   
M_VEDIC_8x8_1_VEDIC_4x4_1_ADDER_6x6_1_4x4_1_FA_1_HA1_M16         $D_HI
+  VEDIC_8x8_1_VEDIC_4x4_1_N08177
+  VEDIC_8x8_1_VEDIC_4x4_1_ADDER_6x6_1_4x4_1_FA_1_HA1_N11593 $D_HI MbreakP       
+     
M_VEDIC_8x8_1_VEDIC_4x4_1_ADDER_6x6_1_4x4_1_FA_1_HA1_M8        
+  VEDIC_8x8_1_VEDIC_4x4_1_ADDER_6x6_1_4x4_1_FA_1_HA1_N09076
+  VEDIC_8x8_1_VEDIC_4x4_1_ADDER_6x6_1_4x4_1_FA_1_HA1_N11628 0 0 MbreakN         
+   
M_VEDIC_8x8_1_VEDIC_4x4_1_ADDER_6x6_1_4x4_1_FA_1_HA1_M14         $D_HI
+  VEDIC_8x8_1_VEDIC_4x4_1_ADDER_6x6_1_4x4_1_FA_1_HA1_N11593
+  VEDIC_8x8_1_VEDIC_4x4_1_ADDER_6x6_1_4x4_1_FA_1_HA1_N09404 $D_HI MbreakP       
+     
M_VEDIC_8x8_1_VEDIC_4x4_1_ADDER_6x6_1_4x4_1_FA_1_HA1_M17         $D_HI 0
+  VEDIC_8x8_1_VEDIC_4x4_1_ADDER_6x6_1_4x4_1_FA_1_HA1_N11628 $D_HI MbreakP       
+     
M_VEDIC_8x8_1_VEDIC_4x4_1_ADDER_6x6_1_4x4_1_FA_1_HA1_M9        
+  VEDIC_8x8_1_VEDIC_4x4_1_ADDER_6x6_1_4x4_1_FA_1_N00311
+  VEDIC_8x8_1_VEDIC_4x4_1_N08177
+  VEDIC_8x8_1_VEDIC_4x4_1_ADDER_6x6_1_4x4_1_FA_1_HA1_N09191 0 MbreakN           
M_VEDIC_8x8_1_VEDIC_4x4_1_ADDER_6x6_1_4x4_1_FA_1_HA1_M15         $D_HI
+  VEDIC_8x8_1_VEDIC_4x4_1_ADDER_6x6_1_4x4_1_FA_1_HA1_N11628
+  VEDIC_8x8_1_VEDIC_4x4_1_ADDER_6x6_1_4x4_1_FA_1_HA1_N09404 $D_HI MbreakP       
+     
M_VEDIC_8x8_1_VEDIC_4x4_1_ADDER_6x6_1_4x4_1_FA_1_HA1_M18        
+  VEDIC_8x8_1_VEDIC_4x4_1_ADDER_6x6_1_4x4_1_FA_1_HA1_N11593
+  VEDIC_8x8_1_VEDIC_4x4_1_N08177 0 0 MbreakN           
M_VEDIC_8x8_1_VEDIC_4x4_1_ADDER_6x6_1_4x4_1_FA_1_HA1_M10        
+  VEDIC_8x8_1_VEDIC_4x4_1_ADDER_6x6_1_4x4_1_FA_1_N00311
+  VEDIC_8x8_1_VEDIC_4x4_1_ADDER_6x6_1_4x4_1_FA_1_HA1_N11593
+  VEDIC_8x8_1_VEDIC_4x4_1_ADDER_6x6_1_4x4_1_FA_1_HA1_N09076 0 MbreakN           
M_VEDIC_8x8_1_VEDIC_4x4_1_ADDER_6x6_1_4x4_1_FA_1_HA1_M19        
+  VEDIC_8x8_1_VEDIC_4x4_1_ADDER_6x6_1_4x4_1_FA_1_HA1_N11628 0 0 0 MbreakN       
+     
M_VEDIC_8x8_1_VEDIC_4x4_1_ADDER_6x6_1_4x4_1_FA_1_M1        
+  VEDIC_8x8_1_VEDIC_4x4_1_ADDER_6x6_1_4x4_1_FA_1_N00946
+  VEDIC_8x8_1_VEDIC_4x4_1_ADDER_6x6_1_4x4_1_FA_1_N01184 0 0 MbreakN           
M_VEDIC_8x8_1_VEDIC_4x4_1_ADDER_6x6_1_4x4_1_FA_1_HA2_M11        
+  VEDIC_8x8_1_VEDIC_4x4_1_ADDER_6x6_1_4x4_1_FA_1_HA2_N09191
+  VEDIC_8x8_1_VEDIC_4x4_1_ADDER_6x6_1_4x4_1_FA_1_N00311 0 0 MbreakN           
M_VEDIC_8x8_1_VEDIC_4x4_1_ADDER_6x6_1_4x4_1_FA_1_HA2_M5         $D_HI
+  VEDIC_8x8_1_VEDIC_4x4_1_ADDER_6x6_1_4x4_1_FA_1_N00311
+  VEDIC_8x8_1_VEDIC_4x4_1_ADDER_6x6_1_4x4_1_FA_1_HA2_N06579 $D_HI MbreakP       
+     
M_VEDIC_8x8_1_VEDIC_4x4_1_ADDER_6x6_1_4x4_1_FA_1_HA2_M2        
+  VEDIC_8x8_1_VEDIC_4x4_1_ADDER_6x6_1_4x4_1_FA_1_HA2_N06008
+  VEDIC_8x8_1_VEDIC_4x4_1_ADDER_6x6_1_4x4_1_FA_1_N00311 0 0 MbreakN           
M_VEDIC_8x8_1_VEDIC_4x4_1_ADDER_6x6_1_4x4_1_FA_1_HA2_M4         $D_HI
+  VEDIC_8x8_1_VEDIC_4x4_1_ADDER_6x6_1_4x4_1_N00531
+  VEDIC_8x8_1_VEDIC_4x4_1_ADDER_6x6_1_4x4_1_FA_1_HA2_N06579 $D_HI MbreakP       
+     
M_VEDIC_8x8_1_VEDIC_4x4_1_ADDER_6x6_1_4x4_1_FA_1_HA2_M12        
+  VEDIC_8x8_1_VEDIC_4x4_1_ADDER_6x6_1_4x4_1_FA_1_HA2_N09404
+  VEDIC_8x8_1_VEDIC_4x4_1_ADDER_6x6_1_4x4_1_N00531
+  VEDIC_8x8_1_VEDIC_4x4_1_N02999 $D_HI MbreakP           
M_VEDIC_8x8_1_VEDIC_4x4_1_ADDER_6x6_1_4x4_1_FA_1_HA2_M1        
+  VEDIC_8x8_1_VEDIC_4x4_1_ADDER_6x6_1_4x4_1_FA_1_HA2_N06579
+  VEDIC_8x8_1_VEDIC_4x4_1_ADDER_6x6_1_4x4_1_N00531
+  VEDIC_8x8_1_VEDIC_4x4_1_ADDER_6x6_1_4x4_1_FA_1_HA2_N06008 0 MbreakN           
M_VEDIC_8x8_1_VEDIC_4x4_1_ADDER_6x6_1_4x4_1_FA_1_HA2_M6         $D_HI
+  VEDIC_8x8_1_VEDIC_4x4_1_ADDER_6x6_1_4x4_1_FA_1_HA2_N06579
+  VEDIC_8x8_1_VEDIC_4x4_1_ADDER_6x6_1_4x4_1_FA_1_N01242 $D_HI MbreakP           
M_VEDIC_8x8_1_VEDIC_4x4_1_ADDER_6x6_1_4x4_1_FA_1_HA2_M13        
+  VEDIC_8x8_1_VEDIC_4x4_1_ADDER_6x6_1_4x4_1_FA_1_HA2_N09404
+  VEDIC_8x8_1_VEDIC_4x4_1_ADDER_6x6_1_4x4_1_FA_1_N00311
+  VEDIC_8x8_1_VEDIC_4x4_1_N02999 $D_HI MbreakP           
M_VEDIC_8x8_1_VEDIC_4x4_1_ADDER_6x6_1_4x4_1_FA_1_HA2_M3        
+  VEDIC_8x8_1_VEDIC_4x4_1_ADDER_6x6_1_4x4_1_FA_1_N01242
+  VEDIC_8x8_1_VEDIC_4x4_1_ADDER_6x6_1_4x4_1_FA_1_HA2_N06579 0 0 MbreakN         
+   
M_VEDIC_8x8_1_VEDIC_4x4_1_ADDER_6x6_1_4x4_1_FA_1_HA2_M16         $D_HI
+  VEDIC_8x8_1_VEDIC_4x4_1_ADDER_6x6_1_4x4_1_N00531
+  VEDIC_8x8_1_VEDIC_4x4_1_ADDER_6x6_1_4x4_1_FA_1_HA2_N11593 $D_HI MbreakP       
+     
M_VEDIC_8x8_1_VEDIC_4x4_1_ADDER_6x6_1_4x4_1_FA_1_HA2_M8        
+  VEDIC_8x8_1_VEDIC_4x4_1_ADDER_6x6_1_4x4_1_FA_1_HA2_N09076
+  VEDIC_8x8_1_VEDIC_4x4_1_ADDER_6x6_1_4x4_1_FA_1_HA2_N11628 0 0 MbreakN         
+   
M_VEDIC_8x8_1_VEDIC_4x4_1_ADDER_6x6_1_4x4_1_FA_1_HA2_M14         $D_HI
+  VEDIC_8x8_1_VEDIC_4x4_1_ADDER_6x6_1_4x4_1_FA_1_HA2_N11593
+  VEDIC_8x8_1_VEDIC_4x4_1_ADDER_6x6_1_4x4_1_FA_1_HA2_N09404 $D_HI MbreakP       
+     
M_VEDIC_8x8_1_VEDIC_4x4_1_ADDER_6x6_1_4x4_1_FA_1_HA2_M17         $D_HI
+  VEDIC_8x8_1_VEDIC_4x4_1_ADDER_6x6_1_4x4_1_FA_1_N00311
+  VEDIC_8x8_1_VEDIC_4x4_1_ADDER_6x6_1_4x4_1_FA_1_HA2_N11628 $D_HI MbreakP       
+     
M_VEDIC_8x8_1_VEDIC_4x4_1_ADDER_6x6_1_4x4_1_FA_1_HA2_M9        
+  VEDIC_8x8_1_VEDIC_4x4_1_N02999
+  VEDIC_8x8_1_VEDIC_4x4_1_ADDER_6x6_1_4x4_1_N00531
+  VEDIC_8x8_1_VEDIC_4x4_1_ADDER_6x6_1_4x4_1_FA_1_HA2_N09191 0 MbreakN           
M_VEDIC_8x8_1_VEDIC_4x4_1_ADDER_6x6_1_4x4_1_FA_1_HA2_M15         $D_HI
+  VEDIC_8x8_1_VEDIC_4x4_1_ADDER_6x6_1_4x4_1_FA_1_HA2_N11628
+  VEDIC_8x8_1_VEDIC_4x4_1_ADDER_6x6_1_4x4_1_FA_1_HA2_N09404 $D_HI MbreakP       
+     
M_VEDIC_8x8_1_VEDIC_4x4_1_ADDER_6x6_1_4x4_1_FA_1_HA2_M18        
+  VEDIC_8x8_1_VEDIC_4x4_1_ADDER_6x6_1_4x4_1_FA_1_HA2_N11593
+  VEDIC_8x8_1_VEDIC_4x4_1_ADDER_6x6_1_4x4_1_N00531 0 0 MbreakN           
M_VEDIC_8x8_1_VEDIC_4x4_1_ADDER_6x6_1_4x4_1_FA_1_HA2_M10        
+  VEDIC_8x8_1_VEDIC_4x4_1_N02999
+  VEDIC_8x8_1_VEDIC_4x4_1_ADDER_6x6_1_4x4_1_FA_1_HA2_N11593
+  VEDIC_8x8_1_VEDIC_4x4_1_ADDER_6x6_1_4x4_1_FA_1_HA2_N09076 0 MbreakN           
M_VEDIC_8x8_1_VEDIC_4x4_1_ADDER_6x6_1_4x4_1_FA_1_HA2_M19        
+  VEDIC_8x8_1_VEDIC_4x4_1_ADDER_6x6_1_4x4_1_FA_1_HA2_N11628
+  VEDIC_8x8_1_VEDIC_4x4_1_ADDER_6x6_1_4x4_1_FA_1_N00311 0 0 MbreakN           
M_VEDIC_8x8_1_VEDIC_4x4_1_ADDER_6x6_1_4x4_1_FA_1_M3        
+  VEDIC_8x8_1_VEDIC_4x4_1_ADDER_6x6_1_4x4_1_FA_1_N01015
+  VEDIC_8x8_1_VEDIC_4x4_1_ADDER_6x6_1_4x4_1_FA_1_N01242
+  VEDIC_8x8_1_VEDIC_4x4_1_ADDER_6x6_1_4x4_1_FA_1_N00946 $D_HI MbreakP           
M_VEDIC_8x8_1_VEDIC_4x4_1_ADDER_6x6_1_4x4_1_FA_1_M2        
+  VEDIC_8x8_1_VEDIC_4x4_1_ADDER_6x6_1_4x4_1_FA_1_N00946
+  VEDIC_8x8_1_VEDIC_4x4_1_ADDER_6x6_1_4x4_1_FA_1_N01242 0 0 MbreakN           
M_VEDIC_8x8_1_VEDIC_4x4_1_ADDER_6x6_1_4x4_1_FA_1_M4         $D_HI
+  VEDIC_8x8_1_VEDIC_4x4_1_ADDER_6x6_1_4x4_1_FA_1_N01184
+  VEDIC_8x8_1_VEDIC_4x4_1_ADDER_6x6_1_4x4_1_FA_1_N01015 $D_HI MbreakP           
M_VEDIC_8x8_1_VEDIC_4x4_1_ADDER_6x6_1_4x4_1_FA_1_M5         $D_HI
+  VEDIC_8x8_1_VEDIC_4x4_1_ADDER_6x6_1_4x4_1_FA_1_N00946
+  VEDIC_8x8_1_VEDIC_4x4_1_ADDER_6x6_1_4x4_1_N00549 $D_HI MbreakP           
M_VEDIC_8x8_1_VEDIC_4x4_1_ADDER_6x6_1_4x4_1_FA_2_M6        
+  VEDIC_8x8_1_VEDIC_4x4_1_ADDER_6x6_1_4x4_1_N00567
+  VEDIC_8x8_1_VEDIC_4x4_1_ADDER_6x6_1_4x4_1_FA_2_N00946 0 0 MbreakN           
M_VEDIC_8x8_1_VEDIC_4x4_1_ADDER_6x6_1_4x4_1_FA_2_HA1_M11        
+  VEDIC_8x8_1_VEDIC_4x4_1_ADDER_6x6_1_4x4_1_FA_2_HA1_N09191
+  VEDIC_8x8_1_VEDIC_4x4_1_N02552 0 0 MbreakN           
M_VEDIC_8x8_1_VEDIC_4x4_1_ADDER_6x6_1_4x4_1_FA_2_HA1_M5         $D_HI
+  VEDIC_8x8_1_VEDIC_4x4_1_N02552
+  VEDIC_8x8_1_VEDIC_4x4_1_ADDER_6x6_1_4x4_1_FA_2_HA1_N06579 $D_HI MbreakP       
+     
M_VEDIC_8x8_1_VEDIC_4x4_1_ADDER_6x6_1_4x4_1_FA_2_HA1_M2        
+  VEDIC_8x8_1_VEDIC_4x4_1_ADDER_6x6_1_4x4_1_FA_2_HA1_N06008
+  VEDIC_8x8_1_VEDIC_4x4_1_N02552 0 0 MbreakN           
M_VEDIC_8x8_1_VEDIC_4x4_1_ADDER_6x6_1_4x4_1_FA_2_HA1_M4         $D_HI
+  VEDIC_8x8_1_VEDIC_4x4_1_N02007
+  VEDIC_8x8_1_VEDIC_4x4_1_ADDER_6x6_1_4x4_1_FA_2_HA1_N06579 $D_HI MbreakP       
+     
M_VEDIC_8x8_1_VEDIC_4x4_1_ADDER_6x6_1_4x4_1_FA_2_HA1_M12        
+  VEDIC_8x8_1_VEDIC_4x4_1_ADDER_6x6_1_4x4_1_FA_2_HA1_N09404
+  VEDIC_8x8_1_VEDIC_4x4_1_N02007
+  VEDIC_8x8_1_VEDIC_4x4_1_ADDER_6x6_1_4x4_1_FA_2_N00311 $D_HI MbreakP           
M_VEDIC_8x8_1_VEDIC_4x4_1_ADDER_6x6_1_4x4_1_FA_2_HA1_M1        
+  VEDIC_8x8_1_VEDIC_4x4_1_ADDER_6x6_1_4x4_1_FA_2_HA1_N06579
+  VEDIC_8x8_1_VEDIC_4x4_1_N02007
+  VEDIC_8x8_1_VEDIC_4x4_1_ADDER_6x6_1_4x4_1_FA_2_HA1_N06008 0 MbreakN           
M_VEDIC_8x8_1_VEDIC_4x4_1_ADDER_6x6_1_4x4_1_FA_2_HA1_M6         $D_HI
+  VEDIC_8x8_1_VEDIC_4x4_1_ADDER_6x6_1_4x4_1_FA_2_HA1_N06579
+  VEDIC_8x8_1_VEDIC_4x4_1_ADDER_6x6_1_4x4_1_FA_2_N01184 $D_HI MbreakP           
M_VEDIC_8x8_1_VEDIC_4x4_1_ADDER_6x6_1_4x4_1_FA_2_HA1_M13        
+  VEDIC_8x8_1_VEDIC_4x4_1_ADDER_6x6_1_4x4_1_FA_2_HA1_N09404
+  VEDIC_8x8_1_VEDIC_4x4_1_N02552
+  VEDIC_8x8_1_VEDIC_4x4_1_ADDER_6x6_1_4x4_1_FA_2_N00311 $D_HI MbreakP           
M_VEDIC_8x8_1_VEDIC_4x4_1_ADDER_6x6_1_4x4_1_FA_2_HA1_M3        
+  VEDIC_8x8_1_VEDIC_4x4_1_ADDER_6x6_1_4x4_1_FA_2_N01184
+  VEDIC_8x8_1_VEDIC_4x4_1_ADDER_6x6_1_4x4_1_FA_2_HA1_N06579 0 0 MbreakN         
+   
M_VEDIC_8x8_1_VEDIC_4x4_1_ADDER_6x6_1_4x4_1_FA_2_HA1_M16         $D_HI
+  VEDIC_8x8_1_VEDIC_4x4_1_N02007
+  VEDIC_8x8_1_VEDIC_4x4_1_ADDER_6x6_1_4x4_1_FA_2_HA1_N11593 $D_HI MbreakP       
+     
M_VEDIC_8x8_1_VEDIC_4x4_1_ADDER_6x6_1_4x4_1_FA_2_HA1_M8        
+  VEDIC_8x8_1_VEDIC_4x4_1_ADDER_6x6_1_4x4_1_FA_2_HA1_N09076
+  VEDIC_8x8_1_VEDIC_4x4_1_ADDER_6x6_1_4x4_1_FA_2_HA1_N11628 0 0 MbreakN         
+   
M_VEDIC_8x8_1_VEDIC_4x4_1_ADDER_6x6_1_4x4_1_FA_2_HA1_M14         $D_HI
+  VEDIC_8x8_1_VEDIC_4x4_1_ADDER_6x6_1_4x4_1_FA_2_HA1_N11593
+  VEDIC_8x8_1_VEDIC_4x4_1_ADDER_6x6_1_4x4_1_FA_2_HA1_N09404 $D_HI MbreakP       
+     
M_VEDIC_8x8_1_VEDIC_4x4_1_ADDER_6x6_1_4x4_1_FA_2_HA1_M17         $D_HI
+  VEDIC_8x8_1_VEDIC_4x4_1_N02552
+  VEDIC_8x8_1_VEDIC_4x4_1_ADDER_6x6_1_4x4_1_FA_2_HA1_N11628 $D_HI MbreakP       
+     
M_VEDIC_8x8_1_VEDIC_4x4_1_ADDER_6x6_1_4x4_1_FA_2_HA1_M9        
+  VEDIC_8x8_1_VEDIC_4x4_1_ADDER_6x6_1_4x4_1_FA_2_N00311
+  VEDIC_8x8_1_VEDIC_4x4_1_N02007
+  VEDIC_8x8_1_VEDIC_4x4_1_ADDER_6x6_1_4x4_1_FA_2_HA1_N09191 0 MbreakN           
M_VEDIC_8x8_1_VEDIC_4x4_1_ADDER_6x6_1_4x4_1_FA_2_HA1_M15         $D_HI
+  VEDIC_8x8_1_VEDIC_4x4_1_ADDER_6x6_1_4x4_1_FA_2_HA1_N11628
+  VEDIC_8x8_1_VEDIC_4x4_1_ADDER_6x6_1_4x4_1_FA_2_HA1_N09404 $D_HI MbreakP       
+     
M_VEDIC_8x8_1_VEDIC_4x4_1_ADDER_6x6_1_4x4_1_FA_2_HA1_M18        
+  VEDIC_8x8_1_VEDIC_4x4_1_ADDER_6x6_1_4x4_1_FA_2_HA1_N11593
+  VEDIC_8x8_1_VEDIC_4x4_1_N02007 0 0 MbreakN           
M_VEDIC_8x8_1_VEDIC_4x4_1_ADDER_6x6_1_4x4_1_FA_2_HA1_M10        
+  VEDIC_8x8_1_VEDIC_4x4_1_ADDER_6x6_1_4x4_1_FA_2_N00311
+  VEDIC_8x8_1_VEDIC_4x4_1_ADDER_6x6_1_4x4_1_FA_2_HA1_N11593
+  VEDIC_8x8_1_VEDIC_4x4_1_ADDER_6x6_1_4x4_1_FA_2_HA1_N09076 0 MbreakN           
M_VEDIC_8x8_1_VEDIC_4x4_1_ADDER_6x6_1_4x4_1_FA_2_HA1_M19        
+  VEDIC_8x8_1_VEDIC_4x4_1_ADDER_6x6_1_4x4_1_FA_2_HA1_N11628
+  VEDIC_8x8_1_VEDIC_4x4_1_N02552 0 0 MbreakN           
M_VEDIC_8x8_1_VEDIC_4x4_1_ADDER_6x6_1_4x4_1_FA_2_M1        
+  VEDIC_8x8_1_VEDIC_4x4_1_ADDER_6x6_1_4x4_1_FA_2_N00946
+  VEDIC_8x8_1_VEDIC_4x4_1_ADDER_6x6_1_4x4_1_FA_2_N01184 0 0 MbreakN           
M_VEDIC_8x8_1_VEDIC_4x4_1_ADDER_6x6_1_4x4_1_FA_2_HA2_M11        
+  VEDIC_8x8_1_VEDIC_4x4_1_ADDER_6x6_1_4x4_1_FA_2_HA2_N09191
+  VEDIC_8x8_1_VEDIC_4x4_1_ADDER_6x6_1_4x4_1_FA_2_N00311 0 0 MbreakN           
M_VEDIC_8x8_1_VEDIC_4x4_1_ADDER_6x6_1_4x4_1_FA_2_HA2_M5         $D_HI
+  VEDIC_8x8_1_VEDIC_4x4_1_ADDER_6x6_1_4x4_1_FA_2_N00311
+  VEDIC_8x8_1_VEDIC_4x4_1_ADDER_6x6_1_4x4_1_FA_2_HA2_N06579 $D_HI MbreakP       
+     
M_VEDIC_8x8_1_VEDIC_4x4_1_ADDER_6x6_1_4x4_1_FA_2_HA2_M2        
+  VEDIC_8x8_1_VEDIC_4x4_1_ADDER_6x6_1_4x4_1_FA_2_HA2_N06008
+  VEDIC_8x8_1_VEDIC_4x4_1_ADDER_6x6_1_4x4_1_FA_2_N00311 0 0 MbreakN           
M_VEDIC_8x8_1_VEDIC_4x4_1_ADDER_6x6_1_4x4_1_FA_2_HA2_M4         $D_HI
+  VEDIC_8x8_1_VEDIC_4x4_1_ADDER_6x6_1_4x4_1_N00549
+  VEDIC_8x8_1_VEDIC_4x4_1_ADDER_6x6_1_4x4_1_FA_2_HA2_N06579 $D_HI MbreakP       
+     
M_VEDIC_8x8_1_VEDIC_4x4_1_ADDER_6x6_1_4x4_1_FA_2_HA2_M12        
+  VEDIC_8x8_1_VEDIC_4x4_1_ADDER_6x6_1_4x4_1_FA_2_HA2_N09404
+  VEDIC_8x8_1_VEDIC_4x4_1_ADDER_6x6_1_4x4_1_N00549
+  VEDIC_8x8_1_VEDIC_4x4_1_N03010 $D_HI MbreakP           
M_VEDIC_8x8_1_VEDIC_4x4_1_ADDER_6x6_1_4x4_1_FA_2_HA2_M1        
+  VEDIC_8x8_1_VEDIC_4x4_1_ADDER_6x6_1_4x4_1_FA_2_HA2_N06579
+  VEDIC_8x8_1_VEDIC_4x4_1_ADDER_6x6_1_4x4_1_N00549
+  VEDIC_8x8_1_VEDIC_4x4_1_ADDER_6x6_1_4x4_1_FA_2_HA2_N06008 0 MbreakN           
M_VEDIC_8x8_1_VEDIC_4x4_1_ADDER_6x6_1_4x4_1_FA_2_HA2_M6         $D_HI
+  VEDIC_8x8_1_VEDIC_4x4_1_ADDER_6x6_1_4x4_1_FA_2_HA2_N06579
+  VEDIC_8x8_1_VEDIC_4x4_1_ADDER_6x6_1_4x4_1_FA_2_N01242 $D_HI MbreakP           
M_VEDIC_8x8_1_VEDIC_4x4_1_ADDER_6x6_1_4x4_1_FA_2_HA2_M13        
+  VEDIC_8x8_1_VEDIC_4x4_1_ADDER_6x6_1_4x4_1_FA_2_HA2_N09404
+  VEDIC_8x8_1_VEDIC_4x4_1_ADDER_6x6_1_4x4_1_FA_2_N00311
+  VEDIC_8x8_1_VEDIC_4x4_1_N03010 $D_HI MbreakP           
M_VEDIC_8x8_1_VEDIC_4x4_1_ADDER_6x6_1_4x4_1_FA_2_HA2_M3        
+  VEDIC_8x8_1_VEDIC_4x4_1_ADDER_6x6_1_4x4_1_FA_2_N01242
+  VEDIC_8x8_1_VEDIC_4x4_1_ADDER_6x6_1_4x4_1_FA_2_HA2_N06579 0 0 MbreakN         
+   
M_VEDIC_8x8_1_VEDIC_4x4_1_ADDER_6x6_1_4x4_1_FA_2_HA2_M16         $D_HI
+  VEDIC_8x8_1_VEDIC_4x4_1_ADDER_6x6_1_4x4_1_N00549
+  VEDIC_8x8_1_VEDIC_4x4_1_ADDER_6x6_1_4x4_1_FA_2_HA2_N11593 $D_HI MbreakP       
+     
M_VEDIC_8x8_1_VEDIC_4x4_1_ADDER_6x6_1_4x4_1_FA_2_HA2_M8        
+  VEDIC_8x8_1_VEDIC_4x4_1_ADDER_6x6_1_4x4_1_FA_2_HA2_N09076
+  VEDIC_8x8_1_VEDIC_4x4_1_ADDER_6x6_1_4x4_1_FA_2_HA2_N11628 0 0 MbreakN         
+   
M_VEDIC_8x8_1_VEDIC_4x4_1_ADDER_6x6_1_4x4_1_FA_2_HA2_M14         $D_HI
+  VEDIC_8x8_1_VEDIC_4x4_1_ADDER_6x6_1_4x4_1_FA_2_HA2_N11593
+  VEDIC_8x8_1_VEDIC_4x4_1_ADDER_6x6_1_4x4_1_FA_2_HA2_N09404 $D_HI MbreakP       
+     
M_VEDIC_8x8_1_VEDIC_4x4_1_ADDER_6x6_1_4x4_1_FA_2_HA2_M17         $D_HI
+  VEDIC_8x8_1_VEDIC_4x4_1_ADDER_6x6_1_4x4_1_FA_2_N00311
+  VEDIC_8x8_1_VEDIC_4x4_1_ADDER_6x6_1_4x4_1_FA_2_HA2_N11628 $D_HI MbreakP       
+     
M_VEDIC_8x8_1_VEDIC_4x4_1_ADDER_6x6_1_4x4_1_FA_2_HA2_M9        
+  VEDIC_8x8_1_VEDIC_4x4_1_N03010
+  VEDIC_8x8_1_VEDIC_4x4_1_ADDER_6x6_1_4x4_1_N00549
+  VEDIC_8x8_1_VEDIC_4x4_1_ADDER_6x6_1_4x4_1_FA_2_HA2_N09191 0 MbreakN           
M_VEDIC_8x8_1_VEDIC_4x4_1_ADDER_6x6_1_4x4_1_FA_2_HA2_M15         $D_HI
+  VEDIC_8x8_1_VEDIC_4x4_1_ADDER_6x6_1_4x4_1_FA_2_HA2_N11628
+  VEDIC_8x8_1_VEDIC_4x4_1_ADDER_6x6_1_4x4_1_FA_2_HA2_N09404 $D_HI MbreakP       
+     
M_VEDIC_8x8_1_VEDIC_4x4_1_ADDER_6x6_1_4x4_1_FA_2_HA2_M18        
+  VEDIC_8x8_1_VEDIC_4x4_1_ADDER_6x6_1_4x4_1_FA_2_HA2_N11593
+  VEDIC_8x8_1_VEDIC_4x4_1_ADDER_6x6_1_4x4_1_N00549 0 0 MbreakN           
M_VEDIC_8x8_1_VEDIC_4x4_1_ADDER_6x6_1_4x4_1_FA_2_HA2_M10        
+  VEDIC_8x8_1_VEDIC_4x4_1_N03010
+  VEDIC_8x8_1_VEDIC_4x4_1_ADDER_6x6_1_4x4_1_FA_2_HA2_N11593
+  VEDIC_8x8_1_VEDIC_4x4_1_ADDER_6x6_1_4x4_1_FA_2_HA2_N09076 0 MbreakN           
M_VEDIC_8x8_1_VEDIC_4x4_1_ADDER_6x6_1_4x4_1_FA_2_HA2_M19        
+  VEDIC_8x8_1_VEDIC_4x4_1_ADDER_6x6_1_4x4_1_FA_2_HA2_N11628
+  VEDIC_8x8_1_VEDIC_4x4_1_ADDER_6x6_1_4x4_1_FA_2_N00311 0 0 MbreakN           
M_VEDIC_8x8_1_VEDIC_4x4_1_ADDER_6x6_1_4x4_1_FA_2_M3        
+  VEDIC_8x8_1_VEDIC_4x4_1_ADDER_6x6_1_4x4_1_FA_2_N01015
+  VEDIC_8x8_1_VEDIC_4x4_1_ADDER_6x6_1_4x4_1_FA_2_N01242
+  VEDIC_8x8_1_VEDIC_4x4_1_ADDER_6x6_1_4x4_1_FA_2_N00946 $D_HI MbreakP           
M_VEDIC_8x8_1_VEDIC_4x4_1_ADDER_6x6_1_4x4_1_FA_2_M2        
+  VEDIC_8x8_1_VEDIC_4x4_1_ADDER_6x6_1_4x4_1_FA_2_N00946
+  VEDIC_8x8_1_VEDIC_4x4_1_ADDER_6x6_1_4x4_1_FA_2_N01242 0 0 MbreakN           
M_VEDIC_8x8_1_VEDIC_4x4_1_ADDER_6x6_1_4x4_1_FA_2_M4         $D_HI
+  VEDIC_8x8_1_VEDIC_4x4_1_ADDER_6x6_1_4x4_1_FA_2_N01184
+  VEDIC_8x8_1_VEDIC_4x4_1_ADDER_6x6_1_4x4_1_FA_2_N01015 $D_HI MbreakP           
M_VEDIC_8x8_1_VEDIC_4x4_1_ADDER_6x6_1_4x4_1_FA_2_M5         $D_HI
+  VEDIC_8x8_1_VEDIC_4x4_1_ADDER_6x6_1_4x4_1_FA_2_N00946
+  VEDIC_8x8_1_VEDIC_4x4_1_ADDER_6x6_1_4x4_1_N00567 $D_HI MbreakP           
M_VEDIC_8x8_1_VEDIC_4x4_1_ADDER_6x6_1_4x4_1_FA_3_M6        
+  VEDIC_8x8_1_VEDIC_4x4_1_ADDER_6x6_1_N00579
+  VEDIC_8x8_1_VEDIC_4x4_1_ADDER_6x6_1_4x4_1_FA_3_N00946 0 0 MbreakN           
M_VEDIC_8x8_1_VEDIC_4x4_1_ADDER_6x6_1_4x4_1_FA_3_HA1_M11        
+  VEDIC_8x8_1_VEDIC_4x4_1_ADDER_6x6_1_4x4_1_FA_3_HA1_N09191
+  VEDIC_8x8_1_VEDIC_4x4_1_N02374 0 0 MbreakN           
M_VEDIC_8x8_1_VEDIC_4x4_1_ADDER_6x6_1_4x4_1_FA_3_HA1_M5         $D_HI
+  VEDIC_8x8_1_VEDIC_4x4_1_N02374
+  VEDIC_8x8_1_VEDIC_4x4_1_ADDER_6x6_1_4x4_1_FA_3_HA1_N06579 $D_HI MbreakP       
+     
M_VEDIC_8x8_1_VEDIC_4x4_1_ADDER_6x6_1_4x4_1_FA_3_HA1_M2        
+  VEDIC_8x8_1_VEDIC_4x4_1_ADDER_6x6_1_4x4_1_FA_3_HA1_N06008
+  VEDIC_8x8_1_VEDIC_4x4_1_N02374 0 0 MbreakN           
M_VEDIC_8x8_1_VEDIC_4x4_1_ADDER_6x6_1_4x4_1_FA_3_HA1_M4         $D_HI
+  VEDIC_8x8_1_VEDIC_4x4_1_N02025
+  VEDIC_8x8_1_VEDIC_4x4_1_ADDER_6x6_1_4x4_1_FA_3_HA1_N06579 $D_HI MbreakP       
+     
M_VEDIC_8x8_1_VEDIC_4x4_1_ADDER_6x6_1_4x4_1_FA_3_HA1_M12        
+  VEDIC_8x8_1_VEDIC_4x4_1_ADDER_6x6_1_4x4_1_FA_3_HA1_N09404
+  VEDIC_8x8_1_VEDIC_4x4_1_N02025
+  VEDIC_8x8_1_VEDIC_4x4_1_ADDER_6x6_1_4x4_1_FA_3_N00311 $D_HI MbreakP           
M_VEDIC_8x8_1_VEDIC_4x4_1_ADDER_6x6_1_4x4_1_FA_3_HA1_M1        
+  VEDIC_8x8_1_VEDIC_4x4_1_ADDER_6x6_1_4x4_1_FA_3_HA1_N06579
+  VEDIC_8x8_1_VEDIC_4x4_1_N02025
+  VEDIC_8x8_1_VEDIC_4x4_1_ADDER_6x6_1_4x4_1_FA_3_HA1_N06008 0 MbreakN           
M_VEDIC_8x8_1_VEDIC_4x4_1_ADDER_6x6_1_4x4_1_FA_3_HA1_M6         $D_HI
+  VEDIC_8x8_1_VEDIC_4x4_1_ADDER_6x6_1_4x4_1_FA_3_HA1_N06579
+  VEDIC_8x8_1_VEDIC_4x4_1_ADDER_6x6_1_4x4_1_FA_3_N01184 $D_HI MbreakP           
M_VEDIC_8x8_1_VEDIC_4x4_1_ADDER_6x6_1_4x4_1_FA_3_HA1_M13        
+  VEDIC_8x8_1_VEDIC_4x4_1_ADDER_6x6_1_4x4_1_FA_3_HA1_N09404
+  VEDIC_8x8_1_VEDIC_4x4_1_N02374
+  VEDIC_8x8_1_VEDIC_4x4_1_ADDER_6x6_1_4x4_1_FA_3_N00311 $D_HI MbreakP           
M_VEDIC_8x8_1_VEDIC_4x4_1_ADDER_6x6_1_4x4_1_FA_3_HA1_M3        
+  VEDIC_8x8_1_VEDIC_4x4_1_ADDER_6x6_1_4x4_1_FA_3_N01184
+  VEDIC_8x8_1_VEDIC_4x4_1_ADDER_6x6_1_4x4_1_FA_3_HA1_N06579 0 0 MbreakN         
+   
M_VEDIC_8x8_1_VEDIC_4x4_1_ADDER_6x6_1_4x4_1_FA_3_HA1_M16         $D_HI
+  VEDIC_8x8_1_VEDIC_4x4_1_N02025
+  VEDIC_8x8_1_VEDIC_4x4_1_ADDER_6x6_1_4x4_1_FA_3_HA1_N11593 $D_HI MbreakP       
+     
M_VEDIC_8x8_1_VEDIC_4x4_1_ADDER_6x6_1_4x4_1_FA_3_HA1_M8        
+  VEDIC_8x8_1_VEDIC_4x4_1_ADDER_6x6_1_4x4_1_FA_3_HA1_N09076
+  VEDIC_8x8_1_VEDIC_4x4_1_ADDER_6x6_1_4x4_1_FA_3_HA1_N11628 0 0 MbreakN         
+   
M_VEDIC_8x8_1_VEDIC_4x4_1_ADDER_6x6_1_4x4_1_FA_3_HA1_M14         $D_HI
+  VEDIC_8x8_1_VEDIC_4x4_1_ADDER_6x6_1_4x4_1_FA_3_HA1_N11593
+  VEDIC_8x8_1_VEDIC_4x4_1_ADDER_6x6_1_4x4_1_FA_3_HA1_N09404 $D_HI MbreakP       
+     
M_VEDIC_8x8_1_VEDIC_4x4_1_ADDER_6x6_1_4x4_1_FA_3_HA1_M17         $D_HI
+  VEDIC_8x8_1_VEDIC_4x4_1_N02374
+  VEDIC_8x8_1_VEDIC_4x4_1_ADDER_6x6_1_4x4_1_FA_3_HA1_N11628 $D_HI MbreakP       
+     
M_VEDIC_8x8_1_VEDIC_4x4_1_ADDER_6x6_1_4x4_1_FA_3_HA1_M9        
+  VEDIC_8x8_1_VEDIC_4x4_1_ADDER_6x6_1_4x4_1_FA_3_N00311
+  VEDIC_8x8_1_VEDIC_4x4_1_N02025
+  VEDIC_8x8_1_VEDIC_4x4_1_ADDER_6x6_1_4x4_1_FA_3_HA1_N09191 0 MbreakN           
M_VEDIC_8x8_1_VEDIC_4x4_1_ADDER_6x6_1_4x4_1_FA_3_HA1_M15         $D_HI
+  VEDIC_8x8_1_VEDIC_4x4_1_ADDER_6x6_1_4x4_1_FA_3_HA1_N11628
+  VEDIC_8x8_1_VEDIC_4x4_1_ADDER_6x6_1_4x4_1_FA_3_HA1_N09404 $D_HI MbreakP       
+     
M_VEDIC_8x8_1_VEDIC_4x4_1_ADDER_6x6_1_4x4_1_FA_3_HA1_M18        
+  VEDIC_8x8_1_VEDIC_4x4_1_ADDER_6x6_1_4x4_1_FA_3_HA1_N11593
+  VEDIC_8x8_1_VEDIC_4x4_1_N02025 0 0 MbreakN           
M_VEDIC_8x8_1_VEDIC_4x4_1_ADDER_6x6_1_4x4_1_FA_3_HA1_M10        
+  VEDIC_8x8_1_VEDIC_4x4_1_ADDER_6x6_1_4x4_1_FA_3_N00311
+  VEDIC_8x8_1_VEDIC_4x4_1_ADDER_6x6_1_4x4_1_FA_3_HA1_N11593
+  VEDIC_8x8_1_VEDIC_4x4_1_ADDER_6x6_1_4x4_1_FA_3_HA1_N09076 0 MbreakN           
M_VEDIC_8x8_1_VEDIC_4x4_1_ADDER_6x6_1_4x4_1_FA_3_HA1_M19        
+  VEDIC_8x8_1_VEDIC_4x4_1_ADDER_6x6_1_4x4_1_FA_3_HA1_N11628
+  VEDIC_8x8_1_VEDIC_4x4_1_N02374 0 0 MbreakN           
M_VEDIC_8x8_1_VEDIC_4x4_1_ADDER_6x6_1_4x4_1_FA_3_M1        
+  VEDIC_8x8_1_VEDIC_4x4_1_ADDER_6x6_1_4x4_1_FA_3_N00946
+  VEDIC_8x8_1_VEDIC_4x4_1_ADDER_6x6_1_4x4_1_FA_3_N01184 0 0 MbreakN           
M_VEDIC_8x8_1_VEDIC_4x4_1_ADDER_6x6_1_4x4_1_FA_3_HA2_M11        
+  VEDIC_8x8_1_VEDIC_4x4_1_ADDER_6x6_1_4x4_1_FA_3_HA2_N09191
+  VEDIC_8x8_1_VEDIC_4x4_1_ADDER_6x6_1_4x4_1_FA_3_N00311 0 0 MbreakN           
M_VEDIC_8x8_1_VEDIC_4x4_1_ADDER_6x6_1_4x4_1_FA_3_HA2_M5         $D_HI
+  VEDIC_8x8_1_VEDIC_4x4_1_ADDER_6x6_1_4x4_1_FA_3_N00311
+  VEDIC_8x8_1_VEDIC_4x4_1_ADDER_6x6_1_4x4_1_FA_3_HA2_N06579 $D_HI MbreakP       
+     
M_VEDIC_8x8_1_VEDIC_4x4_1_ADDER_6x6_1_4x4_1_FA_3_HA2_M2        
+  VEDIC_8x8_1_VEDIC_4x4_1_ADDER_6x6_1_4x4_1_FA_3_HA2_N06008
+  VEDIC_8x8_1_VEDIC_4x4_1_ADDER_6x6_1_4x4_1_FA_3_N00311 0 0 MbreakN           
M_VEDIC_8x8_1_VEDIC_4x4_1_ADDER_6x6_1_4x4_1_FA_3_HA2_M4         $D_HI
+  VEDIC_8x8_1_VEDIC_4x4_1_ADDER_6x6_1_4x4_1_N00567
+  VEDIC_8x8_1_VEDIC_4x4_1_ADDER_6x6_1_4x4_1_FA_3_HA2_N06579 $D_HI MbreakP       
+     
M_VEDIC_8x8_1_VEDIC_4x4_1_ADDER_6x6_1_4x4_1_FA_3_HA2_M12        
+  VEDIC_8x8_1_VEDIC_4x4_1_ADDER_6x6_1_4x4_1_FA_3_HA2_N09404
+  VEDIC_8x8_1_VEDIC_4x4_1_ADDER_6x6_1_4x4_1_N00567
+  VEDIC_8x8_1_VEDIC_4x4_1_N03021 $D_HI MbreakP           
M_VEDIC_8x8_1_VEDIC_4x4_1_ADDER_6x6_1_4x4_1_FA_3_HA2_M1        
+  VEDIC_8x8_1_VEDIC_4x4_1_ADDER_6x6_1_4x4_1_FA_3_HA2_N06579
+  VEDIC_8x8_1_VEDIC_4x4_1_ADDER_6x6_1_4x4_1_N00567
+  VEDIC_8x8_1_VEDIC_4x4_1_ADDER_6x6_1_4x4_1_FA_3_HA2_N06008 0 MbreakN           
M_VEDIC_8x8_1_VEDIC_4x4_1_ADDER_6x6_1_4x4_1_FA_3_HA2_M6         $D_HI
+  VEDIC_8x8_1_VEDIC_4x4_1_ADDER_6x6_1_4x4_1_FA_3_HA2_N06579
+  VEDIC_8x8_1_VEDIC_4x4_1_ADDER_6x6_1_4x4_1_FA_3_N01242 $D_HI MbreakP           
M_VEDIC_8x8_1_VEDIC_4x4_1_ADDER_6x6_1_4x4_1_FA_3_HA2_M13        
+  VEDIC_8x8_1_VEDIC_4x4_1_ADDER_6x6_1_4x4_1_FA_3_HA2_N09404
+  VEDIC_8x8_1_VEDIC_4x4_1_ADDER_6x6_1_4x4_1_FA_3_N00311
+  VEDIC_8x8_1_VEDIC_4x4_1_N03021 $D_HI MbreakP           
M_VEDIC_8x8_1_VEDIC_4x4_1_ADDER_6x6_1_4x4_1_FA_3_HA2_M3        
+  VEDIC_8x8_1_VEDIC_4x4_1_ADDER_6x6_1_4x4_1_FA_3_N01242
+  VEDIC_8x8_1_VEDIC_4x4_1_ADDER_6x6_1_4x4_1_FA_3_HA2_N06579 0 0 MbreakN         
+   
M_VEDIC_8x8_1_VEDIC_4x4_1_ADDER_6x6_1_4x4_1_FA_3_HA2_M16         $D_HI
+  VEDIC_8x8_1_VEDIC_4x4_1_ADDER_6x6_1_4x4_1_N00567
+  VEDIC_8x8_1_VEDIC_4x4_1_ADDER_6x6_1_4x4_1_FA_3_HA2_N11593 $D_HI MbreakP       
+     
M_VEDIC_8x8_1_VEDIC_4x4_1_ADDER_6x6_1_4x4_1_FA_3_HA2_M8        
+  VEDIC_8x8_1_VEDIC_4x4_1_ADDER_6x6_1_4x4_1_FA_3_HA2_N09076
+  VEDIC_8x8_1_VEDIC_4x4_1_ADDER_6x6_1_4x4_1_FA_3_HA2_N11628 0 0 MbreakN         
+   
M_VEDIC_8x8_1_VEDIC_4x4_1_ADDER_6x6_1_4x4_1_FA_3_HA2_M14         $D_HI
+  VEDIC_8x8_1_VEDIC_4x4_1_ADDER_6x6_1_4x4_1_FA_3_HA2_N11593
+  VEDIC_8x8_1_VEDIC_4x4_1_ADDER_6x6_1_4x4_1_FA_3_HA2_N09404 $D_HI MbreakP       
+     
M_VEDIC_8x8_1_VEDIC_4x4_1_ADDER_6x6_1_4x4_1_FA_3_HA2_M17         $D_HI
+  VEDIC_8x8_1_VEDIC_4x4_1_ADDER_6x6_1_4x4_1_FA_3_N00311
+  VEDIC_8x8_1_VEDIC_4x4_1_ADDER_6x6_1_4x4_1_FA_3_HA2_N11628 $D_HI MbreakP       
+     
M_VEDIC_8x8_1_VEDIC_4x4_1_ADDER_6x6_1_4x4_1_FA_3_HA2_M9        
+  VEDIC_8x8_1_VEDIC_4x4_1_N03021
+  VEDIC_8x8_1_VEDIC_4x4_1_ADDER_6x6_1_4x4_1_N00567
+  VEDIC_8x8_1_VEDIC_4x4_1_ADDER_6x6_1_4x4_1_FA_3_HA2_N09191 0 MbreakN           
M_VEDIC_8x8_1_VEDIC_4x4_1_ADDER_6x6_1_4x4_1_FA_3_HA2_M15         $D_HI
+  VEDIC_8x8_1_VEDIC_4x4_1_ADDER_6x6_1_4x4_1_FA_3_HA2_N11628
+  VEDIC_8x8_1_VEDIC_4x4_1_ADDER_6x6_1_4x4_1_FA_3_HA2_N09404 $D_HI MbreakP       
+     
M_VEDIC_8x8_1_VEDIC_4x4_1_ADDER_6x6_1_4x4_1_FA_3_HA2_M18        
+  VEDIC_8x8_1_VEDIC_4x4_1_ADDER_6x6_1_4x4_1_FA_3_HA2_N11593
+  VEDIC_8x8_1_VEDIC_4x4_1_ADDER_6x6_1_4x4_1_N00567 0 0 MbreakN           
M_VEDIC_8x8_1_VEDIC_4x4_1_ADDER_6x6_1_4x4_1_FA_3_HA2_M10        
+  VEDIC_8x8_1_VEDIC_4x4_1_N03021
+  VEDIC_8x8_1_VEDIC_4x4_1_ADDER_6x6_1_4x4_1_FA_3_HA2_N11593
+  VEDIC_8x8_1_VEDIC_4x4_1_ADDER_6x6_1_4x4_1_FA_3_HA2_N09076 0 MbreakN           
M_VEDIC_8x8_1_VEDIC_4x4_1_ADDER_6x6_1_4x4_1_FA_3_HA2_M19        
+  VEDIC_8x8_1_VEDIC_4x4_1_ADDER_6x6_1_4x4_1_FA_3_HA2_N11628
+  VEDIC_8x8_1_VEDIC_4x4_1_ADDER_6x6_1_4x4_1_FA_3_N00311 0 0 MbreakN           
M_VEDIC_8x8_1_VEDIC_4x4_1_ADDER_6x6_1_4x4_1_FA_3_M3        
+  VEDIC_8x8_1_VEDIC_4x4_1_ADDER_6x6_1_4x4_1_FA_3_N01015
+  VEDIC_8x8_1_VEDIC_4x4_1_ADDER_6x6_1_4x4_1_FA_3_N01242
+  VEDIC_8x8_1_VEDIC_4x4_1_ADDER_6x6_1_4x4_1_FA_3_N00946 $D_HI MbreakP           
M_VEDIC_8x8_1_VEDIC_4x4_1_ADDER_6x6_1_4x4_1_FA_3_M2        
+  VEDIC_8x8_1_VEDIC_4x4_1_ADDER_6x6_1_4x4_1_FA_3_N00946
+  VEDIC_8x8_1_VEDIC_4x4_1_ADDER_6x6_1_4x4_1_FA_3_N01242 0 0 MbreakN           
M_VEDIC_8x8_1_VEDIC_4x4_1_ADDER_6x6_1_4x4_1_FA_3_M4         $D_HI
+  VEDIC_8x8_1_VEDIC_4x4_1_ADDER_6x6_1_4x4_1_FA_3_N01184
+  VEDIC_8x8_1_VEDIC_4x4_1_ADDER_6x6_1_4x4_1_FA_3_N01015 $D_HI MbreakP           
M_VEDIC_8x8_1_VEDIC_4x4_1_ADDER_6x6_1_4x4_1_FA_3_M5         $D_HI
+  VEDIC_8x8_1_VEDIC_4x4_1_ADDER_6x6_1_4x4_1_FA_3_N00946
+  VEDIC_8x8_1_VEDIC_4x4_1_ADDER_6x6_1_N00579 $D_HI MbreakP           
M_VEDIC_8x8_1_VEDIC_4x4_1_ADDER_6x6_1_FA_1_M6        
+  VEDIC_8x8_1_VEDIC_4x4_1_ADDER_6x6_1_N00597
+  VEDIC_8x8_1_VEDIC_4x4_1_ADDER_6x6_1_FA_1_N00946 0 0 MbreakN           
M_VEDIC_8x8_1_VEDIC_4x4_1_ADDER_6x6_1_FA_1_HA1_M11        
+  VEDIC_8x8_1_VEDIC_4x4_1_ADDER_6x6_1_FA_1_HA1_N09191
+  VEDIC_8x8_1_VEDIC_4x4_1_N02588 0 0 MbreakN           
M_VEDIC_8x8_1_VEDIC_4x4_1_ADDER_6x6_1_FA_1_HA1_M5         $D_HI
+  VEDIC_8x8_1_VEDIC_4x4_1_N02588
+  VEDIC_8x8_1_VEDIC_4x4_1_ADDER_6x6_1_FA_1_HA1_N06579 $D_HI MbreakP           
M_VEDIC_8x8_1_VEDIC_4x4_1_ADDER_6x6_1_FA_1_HA1_M2        
+  VEDIC_8x8_1_VEDIC_4x4_1_ADDER_6x6_1_FA_1_HA1_N06008
+  VEDIC_8x8_1_VEDIC_4x4_1_N02588 0 0 MbreakN           
M_VEDIC_8x8_1_VEDIC_4x4_1_ADDER_6x6_1_FA_1_HA1_M4         $D_HI 0
+  VEDIC_8x8_1_VEDIC_4x4_1_ADDER_6x6_1_FA_1_HA1_N06579 $D_HI MbreakP           
M_VEDIC_8x8_1_VEDIC_4x4_1_ADDER_6x6_1_FA_1_HA1_M12        
+  VEDIC_8x8_1_VEDIC_4x4_1_ADDER_6x6_1_FA_1_HA1_N09404 0
+  VEDIC_8x8_1_VEDIC_4x4_1_ADDER_6x6_1_FA_1_N00311 $D_HI MbreakP           
M_VEDIC_8x8_1_VEDIC_4x4_1_ADDER_6x6_1_FA_1_HA1_M1        
+  VEDIC_8x8_1_VEDIC_4x4_1_ADDER_6x6_1_FA_1_HA1_N06579 0
+  VEDIC_8x8_1_VEDIC_4x4_1_ADDER_6x6_1_FA_1_HA1_N06008 0 MbreakN           
M_VEDIC_8x8_1_VEDIC_4x4_1_ADDER_6x6_1_FA_1_HA1_M6         $D_HI
+  VEDIC_8x8_1_VEDIC_4x4_1_ADDER_6x6_1_FA_1_HA1_N06579
+  VEDIC_8x8_1_VEDIC_4x4_1_ADDER_6x6_1_FA_1_N01184 $D_HI MbreakP           
M_VEDIC_8x8_1_VEDIC_4x4_1_ADDER_6x6_1_FA_1_HA1_M13        
+  VEDIC_8x8_1_VEDIC_4x4_1_ADDER_6x6_1_FA_1_HA1_N09404
+  VEDIC_8x8_1_VEDIC_4x4_1_N02588 VEDIC_8x8_1_VEDIC_4x4_1_ADDER_6x6_1_FA_1_N00311
+  $D_HI MbreakP           
M_VEDIC_8x8_1_VEDIC_4x4_1_ADDER_6x6_1_FA_1_HA1_M3        
+  VEDIC_8x8_1_VEDIC_4x4_1_ADDER_6x6_1_FA_1_N01184
+  VEDIC_8x8_1_VEDIC_4x4_1_ADDER_6x6_1_FA_1_HA1_N06579 0 0 MbreakN           
M_VEDIC_8x8_1_VEDIC_4x4_1_ADDER_6x6_1_FA_1_HA1_M16         $D_HI 0
+  VEDIC_8x8_1_VEDIC_4x4_1_ADDER_6x6_1_FA_1_HA1_N11593 $D_HI MbreakP           
M_VEDIC_8x8_1_VEDIC_4x4_1_ADDER_6x6_1_FA_1_HA1_M8        
+  VEDIC_8x8_1_VEDIC_4x4_1_ADDER_6x6_1_FA_1_HA1_N09076
+  VEDIC_8x8_1_VEDIC_4x4_1_ADDER_6x6_1_FA_1_HA1_N11628 0 0 MbreakN           
M_VEDIC_8x8_1_VEDIC_4x4_1_ADDER_6x6_1_FA_1_HA1_M14         $D_HI
+  VEDIC_8x8_1_VEDIC_4x4_1_ADDER_6x6_1_FA_1_HA1_N11593
+  VEDIC_8x8_1_VEDIC_4x4_1_ADDER_6x6_1_FA_1_HA1_N09404 $D_HI MbreakP           
M_VEDIC_8x8_1_VEDIC_4x4_1_ADDER_6x6_1_FA_1_HA1_M17         $D_HI
+  VEDIC_8x8_1_VEDIC_4x4_1_N02588
+  VEDIC_8x8_1_VEDIC_4x4_1_ADDER_6x6_1_FA_1_HA1_N11628 $D_HI MbreakP           
M_VEDIC_8x8_1_VEDIC_4x4_1_ADDER_6x6_1_FA_1_HA1_M9        
+  VEDIC_8x8_1_VEDIC_4x4_1_ADDER_6x6_1_FA_1_N00311 0
+  VEDIC_8x8_1_VEDIC_4x4_1_ADDER_6x6_1_FA_1_HA1_N09191 0 MbreakN           
M_VEDIC_8x8_1_VEDIC_4x4_1_ADDER_6x6_1_FA_1_HA1_M15         $D_HI
+  VEDIC_8x8_1_VEDIC_4x4_1_ADDER_6x6_1_FA_1_HA1_N11628
+  VEDIC_8x8_1_VEDIC_4x4_1_ADDER_6x6_1_FA_1_HA1_N09404 $D_HI MbreakP           
M_VEDIC_8x8_1_VEDIC_4x4_1_ADDER_6x6_1_FA_1_HA1_M18        
+  VEDIC_8x8_1_VEDIC_4x4_1_ADDER_6x6_1_FA_1_HA1_N11593 0 0 0 MbreakN           
M_VEDIC_8x8_1_VEDIC_4x4_1_ADDER_6x6_1_FA_1_HA1_M10        
+  VEDIC_8x8_1_VEDIC_4x4_1_ADDER_6x6_1_FA_1_N00311
+  VEDIC_8x8_1_VEDIC_4x4_1_ADDER_6x6_1_FA_1_HA1_N11593
+  VEDIC_8x8_1_VEDIC_4x4_1_ADDER_6x6_1_FA_1_HA1_N09076 0 MbreakN           
M_VEDIC_8x8_1_VEDIC_4x4_1_ADDER_6x6_1_FA_1_HA1_M19        
+  VEDIC_8x8_1_VEDIC_4x4_1_ADDER_6x6_1_FA_1_HA1_N11628
+  VEDIC_8x8_1_VEDIC_4x4_1_N02588 0 0 MbreakN           
M_VEDIC_8x8_1_VEDIC_4x4_1_ADDER_6x6_1_FA_1_M1        
+  VEDIC_8x8_1_VEDIC_4x4_1_ADDER_6x6_1_FA_1_N00946
+  VEDIC_8x8_1_VEDIC_4x4_1_ADDER_6x6_1_FA_1_N01184 0 0 MbreakN           
M_VEDIC_8x8_1_VEDIC_4x4_1_ADDER_6x6_1_FA_1_HA2_M11        
+  VEDIC_8x8_1_VEDIC_4x4_1_ADDER_6x6_1_FA_1_HA2_N09191
+  VEDIC_8x8_1_VEDIC_4x4_1_ADDER_6x6_1_FA_1_N00311 0 0 MbreakN           
M_VEDIC_8x8_1_VEDIC_4x4_1_ADDER_6x6_1_FA_1_HA2_M5         $D_HI
+  VEDIC_8x8_1_VEDIC_4x4_1_ADDER_6x6_1_FA_1_N00311
+  VEDIC_8x8_1_VEDIC_4x4_1_ADDER_6x6_1_FA_1_HA2_N06579 $D_HI MbreakP           
M_VEDIC_8x8_1_VEDIC_4x4_1_ADDER_6x6_1_FA_1_HA2_M2        
+  VEDIC_8x8_1_VEDIC_4x4_1_ADDER_6x6_1_FA_1_HA2_N06008
+  VEDIC_8x8_1_VEDIC_4x4_1_ADDER_6x6_1_FA_1_N00311 0 0 MbreakN           
M_VEDIC_8x8_1_VEDIC_4x4_1_ADDER_6x6_1_FA_1_HA2_M4         $D_HI
+  VEDIC_8x8_1_VEDIC_4x4_1_ADDER_6x6_1_N00579
+  VEDIC_8x8_1_VEDIC_4x4_1_ADDER_6x6_1_FA_1_HA2_N06579 $D_HI MbreakP           
M_VEDIC_8x8_1_VEDIC_4x4_1_ADDER_6x6_1_FA_1_HA2_M12        
+  VEDIC_8x8_1_VEDIC_4x4_1_ADDER_6x6_1_FA_1_HA2_N09404
+  VEDIC_8x8_1_VEDIC_4x4_1_ADDER_6x6_1_N00579 VEDIC_8x8_1_VEDIC_4x4_1_N03032
+  $D_HI MbreakP           
M_VEDIC_8x8_1_VEDIC_4x4_1_ADDER_6x6_1_FA_1_HA2_M1        
+  VEDIC_8x8_1_VEDIC_4x4_1_ADDER_6x6_1_FA_1_HA2_N06579
+  VEDIC_8x8_1_VEDIC_4x4_1_ADDER_6x6_1_N00579
+  VEDIC_8x8_1_VEDIC_4x4_1_ADDER_6x6_1_FA_1_HA2_N06008 0 MbreakN           
M_VEDIC_8x8_1_VEDIC_4x4_1_ADDER_6x6_1_FA_1_HA2_M6         $D_HI
+  VEDIC_8x8_1_VEDIC_4x4_1_ADDER_6x6_1_FA_1_HA2_N06579
+  VEDIC_8x8_1_VEDIC_4x4_1_ADDER_6x6_1_FA_1_N01242 $D_HI MbreakP           
M_VEDIC_8x8_1_VEDIC_4x4_1_ADDER_6x6_1_FA_1_HA2_M13        
+  VEDIC_8x8_1_VEDIC_4x4_1_ADDER_6x6_1_FA_1_HA2_N09404
+  VEDIC_8x8_1_VEDIC_4x4_1_ADDER_6x6_1_FA_1_N00311 VEDIC_8x8_1_VEDIC_4x4_1_N03032
+  $D_HI MbreakP           
M_VEDIC_8x8_1_VEDIC_4x4_1_ADDER_6x6_1_FA_1_HA2_M3        
+  VEDIC_8x8_1_VEDIC_4x4_1_ADDER_6x6_1_FA_1_N01242
+  VEDIC_8x8_1_VEDIC_4x4_1_ADDER_6x6_1_FA_1_HA2_N06579 0 0 MbreakN           
M_VEDIC_8x8_1_VEDIC_4x4_1_ADDER_6x6_1_FA_1_HA2_M16         $D_HI
+  VEDIC_8x8_1_VEDIC_4x4_1_ADDER_6x6_1_N00579
+  VEDIC_8x8_1_VEDIC_4x4_1_ADDER_6x6_1_FA_1_HA2_N11593 $D_HI MbreakP           
M_VEDIC_8x8_1_VEDIC_4x4_1_ADDER_6x6_1_FA_1_HA2_M8        
+  VEDIC_8x8_1_VEDIC_4x4_1_ADDER_6x6_1_FA_1_HA2_N09076
+  VEDIC_8x8_1_VEDIC_4x4_1_ADDER_6x6_1_FA_1_HA2_N11628 0 0 MbreakN           
M_VEDIC_8x8_1_VEDIC_4x4_1_ADDER_6x6_1_FA_1_HA2_M14         $D_HI
+  VEDIC_8x8_1_VEDIC_4x4_1_ADDER_6x6_1_FA_1_HA2_N11593
+  VEDIC_8x8_1_VEDIC_4x4_1_ADDER_6x6_1_FA_1_HA2_N09404 $D_HI MbreakP           
M_VEDIC_8x8_1_VEDIC_4x4_1_ADDER_6x6_1_FA_1_HA2_M17         $D_HI
+  VEDIC_8x8_1_VEDIC_4x4_1_ADDER_6x6_1_FA_1_N00311
+  VEDIC_8x8_1_VEDIC_4x4_1_ADDER_6x6_1_FA_1_HA2_N11628 $D_HI MbreakP           
M_VEDIC_8x8_1_VEDIC_4x4_1_ADDER_6x6_1_FA_1_HA2_M9        
+  VEDIC_8x8_1_VEDIC_4x4_1_N03032 VEDIC_8x8_1_VEDIC_4x4_1_ADDER_6x6_1_N00579
+  VEDIC_8x8_1_VEDIC_4x4_1_ADDER_6x6_1_FA_1_HA2_N09191 0 MbreakN           
M_VEDIC_8x8_1_VEDIC_4x4_1_ADDER_6x6_1_FA_1_HA2_M15         $D_HI
+  VEDIC_8x8_1_VEDIC_4x4_1_ADDER_6x6_1_FA_1_HA2_N11628
+  VEDIC_8x8_1_VEDIC_4x4_1_ADDER_6x6_1_FA_1_HA2_N09404 $D_HI MbreakP           
M_VEDIC_8x8_1_VEDIC_4x4_1_ADDER_6x6_1_FA_1_HA2_M18        
+  VEDIC_8x8_1_VEDIC_4x4_1_ADDER_6x6_1_FA_1_HA2_N11593
+  VEDIC_8x8_1_VEDIC_4x4_1_ADDER_6x6_1_N00579 0 0 MbreakN           
M_VEDIC_8x8_1_VEDIC_4x4_1_ADDER_6x6_1_FA_1_HA2_M10        
+  VEDIC_8x8_1_VEDIC_4x4_1_N03032
+  VEDIC_8x8_1_VEDIC_4x4_1_ADDER_6x6_1_FA_1_HA2_N11593
+  VEDIC_8x8_1_VEDIC_4x4_1_ADDER_6x6_1_FA_1_HA2_N09076 0 MbreakN           
M_VEDIC_8x8_1_VEDIC_4x4_1_ADDER_6x6_1_FA_1_HA2_M19        
+  VEDIC_8x8_1_VEDIC_4x4_1_ADDER_6x6_1_FA_1_HA2_N11628
+  VEDIC_8x8_1_VEDIC_4x4_1_ADDER_6x6_1_FA_1_N00311 0 0 MbreakN           
M_VEDIC_8x8_1_VEDIC_4x4_1_ADDER_6x6_1_FA_1_M3        
+  VEDIC_8x8_1_VEDIC_4x4_1_ADDER_6x6_1_FA_1_N01015
+  VEDIC_8x8_1_VEDIC_4x4_1_ADDER_6x6_1_FA_1_N01242
+  VEDIC_8x8_1_VEDIC_4x4_1_ADDER_6x6_1_FA_1_N00946 $D_HI MbreakP           
M_VEDIC_8x8_1_VEDIC_4x4_1_ADDER_6x6_1_FA_1_M2        
+  VEDIC_8x8_1_VEDIC_4x4_1_ADDER_6x6_1_FA_1_N00946
+  VEDIC_8x8_1_VEDIC_4x4_1_ADDER_6x6_1_FA_1_N01242 0 0 MbreakN           
M_VEDIC_8x8_1_VEDIC_4x4_1_ADDER_6x6_1_FA_1_M4         $D_HI
+  VEDIC_8x8_1_VEDIC_4x4_1_ADDER_6x6_1_FA_1_N01184
+  VEDIC_8x8_1_VEDIC_4x4_1_ADDER_6x6_1_FA_1_N01015 $D_HI MbreakP           
M_VEDIC_8x8_1_VEDIC_4x4_1_ADDER_6x6_1_FA_1_M5         $D_HI
+  VEDIC_8x8_1_VEDIC_4x4_1_ADDER_6x6_1_FA_1_N00946
+  VEDIC_8x8_1_VEDIC_4x4_1_ADDER_6x6_1_N00597 $D_HI MbreakP           
M_VEDIC_8x8_1_VEDIC_4x4_1_ADDER_6x6_1_FA_2_M6        
+  VEDIC_8x8_1_VEDIC_4x4_1_N05975 VEDIC_8x8_1_VEDIC_4x4_1_ADDER_6x6_1_FA_2_N00946
+  0 0 MbreakN           
M_VEDIC_8x8_1_VEDIC_4x4_1_ADDER_6x6_1_FA_2_HA1_M11        
+  VEDIC_8x8_1_VEDIC_4x4_1_ADDER_6x6_1_FA_2_HA1_N09191
+  VEDIC_8x8_1_VEDIC_4x4_1_N02608 0 0 MbreakN           
M_VEDIC_8x8_1_VEDIC_4x4_1_ADDER_6x6_1_FA_2_HA1_M5         $D_HI
+  VEDIC_8x8_1_VEDIC_4x4_1_N02608
+  VEDIC_8x8_1_VEDIC_4x4_1_ADDER_6x6_1_FA_2_HA1_N06579 $D_HI MbreakP           
M_VEDIC_8x8_1_VEDIC_4x4_1_ADDER_6x6_1_FA_2_HA1_M2        
+  VEDIC_8x8_1_VEDIC_4x4_1_ADDER_6x6_1_FA_2_HA1_N06008
+  VEDIC_8x8_1_VEDIC_4x4_1_N02608 0 0 MbreakN           
M_VEDIC_8x8_1_VEDIC_4x4_1_ADDER_6x6_1_FA_2_HA1_M4         $D_HI 0
+  VEDIC_8x8_1_VEDIC_4x4_1_ADDER_6x6_1_FA_2_HA1_N06579 $D_HI MbreakP           
M_VEDIC_8x8_1_VEDIC_4x4_1_ADDER_6x6_1_FA_2_HA1_M12        
+  VEDIC_8x8_1_VEDIC_4x4_1_ADDER_6x6_1_FA_2_HA1_N09404 0
+  VEDIC_8x8_1_VEDIC_4x4_1_ADDER_6x6_1_FA_2_N00311 $D_HI MbreakP           
M_VEDIC_8x8_1_VEDIC_4x4_1_ADDER_6x6_1_FA_2_HA1_M1        
+  VEDIC_8x8_1_VEDIC_4x4_1_ADDER_6x6_1_FA_2_HA1_N06579 0
+  VEDIC_8x8_1_VEDIC_4x4_1_ADDER_6x6_1_FA_2_HA1_N06008 0 MbreakN           
M_VEDIC_8x8_1_VEDIC_4x4_1_ADDER_6x6_1_FA_2_HA1_M6         $D_HI
+  VEDIC_8x8_1_VEDIC_4x4_1_ADDER_6x6_1_FA_2_HA1_N06579
+  VEDIC_8x8_1_VEDIC_4x4_1_ADDER_6x6_1_FA_2_N01184 $D_HI MbreakP           
M_VEDIC_8x8_1_VEDIC_4x4_1_ADDER_6x6_1_FA_2_HA1_M13        
+  VEDIC_8x8_1_VEDIC_4x4_1_ADDER_6x6_1_FA_2_HA1_N09404
+  VEDIC_8x8_1_VEDIC_4x4_1_N02608 VEDIC_8x8_1_VEDIC_4x4_1_ADDER_6x6_1_FA_2_N00311
+  $D_HI MbreakP           
M_VEDIC_8x8_1_VEDIC_4x4_1_ADDER_6x6_1_FA_2_HA1_M3        
+  VEDIC_8x8_1_VEDIC_4x4_1_ADDER_6x6_1_FA_2_N01184
+  VEDIC_8x8_1_VEDIC_4x4_1_ADDER_6x6_1_FA_2_HA1_N06579 0 0 MbreakN           
M_VEDIC_8x8_1_VEDIC_4x4_1_ADDER_6x6_1_FA_2_HA1_M16         $D_HI 0
+  VEDIC_8x8_1_VEDIC_4x4_1_ADDER_6x6_1_FA_2_HA1_N11593 $D_HI MbreakP           
M_VEDIC_8x8_1_VEDIC_4x4_1_ADDER_6x6_1_FA_2_HA1_M8        
+  VEDIC_8x8_1_VEDIC_4x4_1_ADDER_6x6_1_FA_2_HA1_N09076
+  VEDIC_8x8_1_VEDIC_4x4_1_ADDER_6x6_1_FA_2_HA1_N11628 0 0 MbreakN           
M_VEDIC_8x8_1_VEDIC_4x4_1_ADDER_6x6_1_FA_2_HA1_M14         $D_HI
+  VEDIC_8x8_1_VEDIC_4x4_1_ADDER_6x6_1_FA_2_HA1_N11593
+  VEDIC_8x8_1_VEDIC_4x4_1_ADDER_6x6_1_FA_2_HA1_N09404 $D_HI MbreakP           
M_VEDIC_8x8_1_VEDIC_4x4_1_ADDER_6x6_1_FA_2_HA1_M17         $D_HI
+  VEDIC_8x8_1_VEDIC_4x4_1_N02608
+  VEDIC_8x8_1_VEDIC_4x4_1_ADDER_6x6_1_FA_2_HA1_N11628 $D_HI MbreakP           
M_VEDIC_8x8_1_VEDIC_4x4_1_ADDER_6x6_1_FA_2_HA1_M9        
+  VEDIC_8x8_1_VEDIC_4x4_1_ADDER_6x6_1_FA_2_N00311 0
+  VEDIC_8x8_1_VEDIC_4x4_1_ADDER_6x6_1_FA_2_HA1_N09191 0 MbreakN           
M_VEDIC_8x8_1_VEDIC_4x4_1_ADDER_6x6_1_FA_2_HA1_M15         $D_HI
+  VEDIC_8x8_1_VEDIC_4x4_1_ADDER_6x6_1_FA_2_HA1_N11628
+  VEDIC_8x8_1_VEDIC_4x4_1_ADDER_6x6_1_FA_2_HA1_N09404 $D_HI MbreakP           
M_VEDIC_8x8_1_VEDIC_4x4_1_ADDER_6x6_1_FA_2_HA1_M18        
+  VEDIC_8x8_1_VEDIC_4x4_1_ADDER_6x6_1_FA_2_HA1_N11593 0 0 0 MbreakN           
M_VEDIC_8x8_1_VEDIC_4x4_1_ADDER_6x6_1_FA_2_HA1_M10        
+  VEDIC_8x8_1_VEDIC_4x4_1_ADDER_6x6_1_FA_2_N00311
+  VEDIC_8x8_1_VEDIC_4x4_1_ADDER_6x6_1_FA_2_HA1_N11593
+  VEDIC_8x8_1_VEDIC_4x4_1_ADDER_6x6_1_FA_2_HA1_N09076 0 MbreakN           
M_VEDIC_8x8_1_VEDIC_4x4_1_ADDER_6x6_1_FA_2_HA1_M19        
+  VEDIC_8x8_1_VEDIC_4x4_1_ADDER_6x6_1_FA_2_HA1_N11628
+  VEDIC_8x8_1_VEDIC_4x4_1_N02608 0 0 MbreakN           
M_VEDIC_8x8_1_VEDIC_4x4_1_ADDER_6x6_1_FA_2_M1        
+  VEDIC_8x8_1_VEDIC_4x4_1_ADDER_6x6_1_FA_2_N00946
+  VEDIC_8x8_1_VEDIC_4x4_1_ADDER_6x6_1_FA_2_N01184 0 0 MbreakN           
M_VEDIC_8x8_1_VEDIC_4x4_1_ADDER_6x6_1_FA_2_HA2_M11        
+  VEDIC_8x8_1_VEDIC_4x4_1_ADDER_6x6_1_FA_2_HA2_N09191
+  VEDIC_8x8_1_VEDIC_4x4_1_ADDER_6x6_1_FA_2_N00311 0 0 MbreakN           
M_VEDIC_8x8_1_VEDIC_4x4_1_ADDER_6x6_1_FA_2_HA2_M5         $D_HI
+  VEDIC_8x8_1_VEDIC_4x4_1_ADDER_6x6_1_FA_2_N00311
+  VEDIC_8x8_1_VEDIC_4x4_1_ADDER_6x6_1_FA_2_HA2_N06579 $D_HI MbreakP           
M_VEDIC_8x8_1_VEDIC_4x4_1_ADDER_6x6_1_FA_2_HA2_M2        
+  VEDIC_8x8_1_VEDIC_4x4_1_ADDER_6x6_1_FA_2_HA2_N06008
+  VEDIC_8x8_1_VEDIC_4x4_1_ADDER_6x6_1_FA_2_N00311 0 0 MbreakN           
M_VEDIC_8x8_1_VEDIC_4x4_1_ADDER_6x6_1_FA_2_HA2_M4         $D_HI
+  VEDIC_8x8_1_VEDIC_4x4_1_ADDER_6x6_1_N00597
+  VEDIC_8x8_1_VEDIC_4x4_1_ADDER_6x6_1_FA_2_HA2_N06579 $D_HI MbreakP           
M_VEDIC_8x8_1_VEDIC_4x4_1_ADDER_6x6_1_FA_2_HA2_M12        
+  VEDIC_8x8_1_VEDIC_4x4_1_ADDER_6x6_1_FA_2_HA2_N09404
+  VEDIC_8x8_1_VEDIC_4x4_1_ADDER_6x6_1_N00597 VEDIC_8x8_1_VEDIC_4x4_1_N03043
+  $D_HI MbreakP           
M_VEDIC_8x8_1_VEDIC_4x4_1_ADDER_6x6_1_FA_2_HA2_M1        
+  VEDIC_8x8_1_VEDIC_4x4_1_ADDER_6x6_1_FA_2_HA2_N06579
+  VEDIC_8x8_1_VEDIC_4x4_1_ADDER_6x6_1_N00597
+  VEDIC_8x8_1_VEDIC_4x4_1_ADDER_6x6_1_FA_2_HA2_N06008 0 MbreakN           
M_VEDIC_8x8_1_VEDIC_4x4_1_ADDER_6x6_1_FA_2_HA2_M6         $D_HI
+  VEDIC_8x8_1_VEDIC_4x4_1_ADDER_6x6_1_FA_2_HA2_N06579
+  VEDIC_8x8_1_VEDIC_4x4_1_ADDER_6x6_1_FA_2_N01242 $D_HI MbreakP           
M_VEDIC_8x8_1_VEDIC_4x4_1_ADDER_6x6_1_FA_2_HA2_M13        
+  VEDIC_8x8_1_VEDIC_4x4_1_ADDER_6x6_1_FA_2_HA2_N09404
+  VEDIC_8x8_1_VEDIC_4x4_1_ADDER_6x6_1_FA_2_N00311 VEDIC_8x8_1_VEDIC_4x4_1_N03043
+  $D_HI MbreakP           
M_VEDIC_8x8_1_VEDIC_4x4_1_ADDER_6x6_1_FA_2_HA2_M3        
+  VEDIC_8x8_1_VEDIC_4x4_1_ADDER_6x6_1_FA_2_N01242
+  VEDIC_8x8_1_VEDIC_4x4_1_ADDER_6x6_1_FA_2_HA2_N06579 0 0 MbreakN           
M_VEDIC_8x8_1_VEDIC_4x4_1_ADDER_6x6_1_FA_2_HA2_M16         $D_HI
+  VEDIC_8x8_1_VEDIC_4x4_1_ADDER_6x6_1_N00597
+  VEDIC_8x8_1_VEDIC_4x4_1_ADDER_6x6_1_FA_2_HA2_N11593 $D_HI MbreakP           
M_VEDIC_8x8_1_VEDIC_4x4_1_ADDER_6x6_1_FA_2_HA2_M8        
+  VEDIC_8x8_1_VEDIC_4x4_1_ADDER_6x6_1_FA_2_HA2_N09076
+  VEDIC_8x8_1_VEDIC_4x4_1_ADDER_6x6_1_FA_2_HA2_N11628 0 0 MbreakN           
M_VEDIC_8x8_1_VEDIC_4x4_1_ADDER_6x6_1_FA_2_HA2_M14         $D_HI
+  VEDIC_8x8_1_VEDIC_4x4_1_ADDER_6x6_1_FA_2_HA2_N11593
+  VEDIC_8x8_1_VEDIC_4x4_1_ADDER_6x6_1_FA_2_HA2_N09404 $D_HI MbreakP           
M_VEDIC_8x8_1_VEDIC_4x4_1_ADDER_6x6_1_FA_2_HA2_M17         $D_HI
+  VEDIC_8x8_1_VEDIC_4x4_1_ADDER_6x6_1_FA_2_N00311
+  VEDIC_8x8_1_VEDIC_4x4_1_ADDER_6x6_1_FA_2_HA2_N11628 $D_HI MbreakP           
M_VEDIC_8x8_1_VEDIC_4x4_1_ADDER_6x6_1_FA_2_HA2_M9        
+  VEDIC_8x8_1_VEDIC_4x4_1_N03043 VEDIC_8x8_1_VEDIC_4x4_1_ADDER_6x6_1_N00597
+  VEDIC_8x8_1_VEDIC_4x4_1_ADDER_6x6_1_FA_2_HA2_N09191 0 MbreakN           
M_VEDIC_8x8_1_VEDIC_4x4_1_ADDER_6x6_1_FA_2_HA2_M15         $D_HI
+  VEDIC_8x8_1_VEDIC_4x4_1_ADDER_6x6_1_FA_2_HA2_N11628
+  VEDIC_8x8_1_VEDIC_4x4_1_ADDER_6x6_1_FA_2_HA2_N09404 $D_HI MbreakP           
M_VEDIC_8x8_1_VEDIC_4x4_1_ADDER_6x6_1_FA_2_HA2_M18        
+  VEDIC_8x8_1_VEDIC_4x4_1_ADDER_6x6_1_FA_2_HA2_N11593
+  VEDIC_8x8_1_VEDIC_4x4_1_ADDER_6x6_1_N00597 0 0 MbreakN           
M_VEDIC_8x8_1_VEDIC_4x4_1_ADDER_6x6_1_FA_2_HA2_M10        
+  VEDIC_8x8_1_VEDIC_4x4_1_N03043
+  VEDIC_8x8_1_VEDIC_4x4_1_ADDER_6x6_1_FA_2_HA2_N11593
+  VEDIC_8x8_1_VEDIC_4x4_1_ADDER_6x6_1_FA_2_HA2_N09076 0 MbreakN           
M_VEDIC_8x8_1_VEDIC_4x4_1_ADDER_6x6_1_FA_2_HA2_M19        
+  VEDIC_8x8_1_VEDIC_4x4_1_ADDER_6x6_1_FA_2_HA2_N11628
+  VEDIC_8x8_1_VEDIC_4x4_1_ADDER_6x6_1_FA_2_N00311 0 0 MbreakN           
M_VEDIC_8x8_1_VEDIC_4x4_1_ADDER_6x6_1_FA_2_M3        
+  VEDIC_8x8_1_VEDIC_4x4_1_ADDER_6x6_1_FA_2_N01015
+  VEDIC_8x8_1_VEDIC_4x4_1_ADDER_6x6_1_FA_2_N01242
+  VEDIC_8x8_1_VEDIC_4x4_1_ADDER_6x6_1_FA_2_N00946 $D_HI MbreakP           
M_VEDIC_8x8_1_VEDIC_4x4_1_ADDER_6x6_1_FA_2_M2        
+  VEDIC_8x8_1_VEDIC_4x4_1_ADDER_6x6_1_FA_2_N00946
+  VEDIC_8x8_1_VEDIC_4x4_1_ADDER_6x6_1_FA_2_N01242 0 0 MbreakN           
M_VEDIC_8x8_1_VEDIC_4x4_1_ADDER_6x6_1_FA_2_M4         $D_HI
+  VEDIC_8x8_1_VEDIC_4x4_1_ADDER_6x6_1_FA_2_N01184
+  VEDIC_8x8_1_VEDIC_4x4_1_ADDER_6x6_1_FA_2_N01015 $D_HI MbreakP           
M_VEDIC_8x8_1_VEDIC_4x4_1_ADDER_6x6_1_FA_2_M5         $D_HI
+  VEDIC_8x8_1_VEDIC_4x4_1_ADDER_6x6_1_FA_2_N00946 VEDIC_8x8_1_VEDIC_4x4_1_N05975
+  $D_HI MbreakP           
M_VEDIC_8x8_1_VEDIC_4x4_1_ADDER_4X4_1_HA_1_M11        
+  VEDIC_8x8_1_VEDIC_4x4_1_ADDER_4X4_1_HA_1_N09191 VEDIC_8x8_1_VEDIC_4x4_1_N00770
+  0 0 MbreakN           
M_VEDIC_8x8_1_VEDIC_4x4_1_ADDER_4X4_1_HA_1_M5         $D_HI
+  VEDIC_8x8_1_VEDIC_4x4_1_N00770 VEDIC_8x8_1_VEDIC_4x4_1_ADDER_4X4_1_HA_1_N06579
+  $D_HI MbreakP           
M_VEDIC_8x8_1_VEDIC_4x4_1_ADDER_4X4_1_HA_1_M2        
+  VEDIC_8x8_1_VEDIC_4x4_1_ADDER_4X4_1_HA_1_N06008 VEDIC_8x8_1_VEDIC_4x4_1_N00770
+  0 0 MbreakN           
M_VEDIC_8x8_1_VEDIC_4x4_1_ADDER_4X4_1_HA_1_M4         $D_HI
+  VEDIC_8x8_1_VEDIC_4x4_1_N00459 VEDIC_8x8_1_VEDIC_4x4_1_ADDER_4X4_1_HA_1_N06579
+  $D_HI MbreakP           
M_VEDIC_8x8_1_VEDIC_4x4_1_ADDER_4X4_1_HA_1_M12        
+  VEDIC_8x8_1_VEDIC_4x4_1_ADDER_4X4_1_HA_1_N09404 VEDIC_8x8_1_VEDIC_4x4_1_N00459
+  VEDIC_8x8_1_VEDIC_4x4_1_N02786 $D_HI MbreakP           
M_VEDIC_8x8_1_VEDIC_4x4_1_ADDER_4X4_1_HA_1_M1        
+  VEDIC_8x8_1_VEDIC_4x4_1_ADDER_4X4_1_HA_1_N06579 VEDIC_8x8_1_VEDIC_4x4_1_N00459
+  VEDIC_8x8_1_VEDIC_4x4_1_ADDER_4X4_1_HA_1_N06008 0 MbreakN           
M_VEDIC_8x8_1_VEDIC_4x4_1_ADDER_4X4_1_HA_1_M6         $D_HI
+  VEDIC_8x8_1_VEDIC_4x4_1_ADDER_4X4_1_HA_1_N06579
+  VEDIC_8x8_1_VEDIC_4x4_1_ADDER_4X4_1_N00531 $D_HI MbreakP           
M_VEDIC_8x8_1_VEDIC_4x4_1_ADDER_4X4_1_HA_1_M13        
+  VEDIC_8x8_1_VEDIC_4x4_1_ADDER_4X4_1_HA_1_N09404 VEDIC_8x8_1_VEDIC_4x4_1_N00770
+  VEDIC_8x8_1_VEDIC_4x4_1_N02786 $D_HI MbreakP           
M_VEDIC_8x8_1_VEDIC_4x4_1_ADDER_4X4_1_HA_1_M3        
+  VEDIC_8x8_1_VEDIC_4x4_1_ADDER_4X4_1_N00531
+  VEDIC_8x8_1_VEDIC_4x4_1_ADDER_4X4_1_HA_1_N06579 0 0 MbreakN           
M_VEDIC_8x8_1_VEDIC_4x4_1_ADDER_4X4_1_HA_1_M16         $D_HI
+  VEDIC_8x8_1_VEDIC_4x4_1_N00459 VEDIC_8x8_1_VEDIC_4x4_1_ADDER_4X4_1_HA_1_N11593
+  $D_HI MbreakP           
M_VEDIC_8x8_1_VEDIC_4x4_1_ADDER_4X4_1_HA_1_M8        
+  VEDIC_8x8_1_VEDIC_4x4_1_ADDER_4X4_1_HA_1_N09076
+  VEDIC_8x8_1_VEDIC_4x4_1_ADDER_4X4_1_HA_1_N11628 0 0 MbreakN           
M_VEDIC_8x8_1_VEDIC_4x4_1_ADDER_4X4_1_HA_1_M14         $D_HI
+  VEDIC_8x8_1_VEDIC_4x4_1_ADDER_4X4_1_HA_1_N11593
+  VEDIC_8x8_1_VEDIC_4x4_1_ADDER_4X4_1_HA_1_N09404 $D_HI MbreakP           
M_VEDIC_8x8_1_VEDIC_4x4_1_ADDER_4X4_1_HA_1_M17         $D_HI
+  VEDIC_8x8_1_VEDIC_4x4_1_N00770 VEDIC_8x8_1_VEDIC_4x4_1_ADDER_4X4_1_HA_1_N11628
+  $D_HI MbreakP           
M_VEDIC_8x8_1_VEDIC_4x4_1_ADDER_4X4_1_HA_1_M9        
+  VEDIC_8x8_1_VEDIC_4x4_1_N02786 VEDIC_8x8_1_VEDIC_4x4_1_N00459
+  VEDIC_8x8_1_VEDIC_4x4_1_ADDER_4X4_1_HA_1_N09191 0 MbreakN           
M_VEDIC_8x8_1_VEDIC_4x4_1_ADDER_4X4_1_HA_1_M15         $D_HI
+  VEDIC_8x8_1_VEDIC_4x4_1_ADDER_4X4_1_HA_1_N11628
+  VEDIC_8x8_1_VEDIC_4x4_1_ADDER_4X4_1_HA_1_N09404 $D_HI MbreakP           
M_VEDIC_8x8_1_VEDIC_4x4_1_ADDER_4X4_1_HA_1_M18        
+  VEDIC_8x8_1_VEDIC_4x4_1_ADDER_4X4_1_HA_1_N11593 VEDIC_8x8_1_VEDIC_4x4_1_N00459
+  0 0 MbreakN           
M_VEDIC_8x8_1_VEDIC_4x4_1_ADDER_4X4_1_HA_1_M10        
+  VEDIC_8x8_1_VEDIC_4x4_1_N02786 VEDIC_8x8_1_VEDIC_4x4_1_ADDER_4X4_1_HA_1_N11593
+  VEDIC_8x8_1_VEDIC_4x4_1_ADDER_4X4_1_HA_1_N09076 0 MbreakN           
M_VEDIC_8x8_1_VEDIC_4x4_1_ADDER_4X4_1_HA_1_M19        
+  VEDIC_8x8_1_VEDIC_4x4_1_ADDER_4X4_1_HA_1_N11628 VEDIC_8x8_1_VEDIC_4x4_1_N00770
+  0 0 MbreakN           
M_VEDIC_8x8_1_VEDIC_4x4_1_ADDER_4X4_1_FA_1_M6        
+  VEDIC_8x8_1_VEDIC_4x4_1_ADDER_4X4_1_N00549
+  VEDIC_8x8_1_VEDIC_4x4_1_ADDER_4X4_1_FA_1_N00946 0 0 MbreakN           
M_VEDIC_8x8_1_VEDIC_4x4_1_ADDER_4X4_1_FA_1_HA1_M11        
+  VEDIC_8x8_1_VEDIC_4x4_1_ADDER_4X4_1_FA_1_HA1_N09191
+  VEDIC_8x8_1_VEDIC_4x4_1_N00781 0 0 MbreakN           
M_VEDIC_8x8_1_VEDIC_4x4_1_ADDER_4X4_1_FA_1_HA1_M5         $D_HI
+  VEDIC_8x8_1_VEDIC_4x4_1_N00781
+  VEDIC_8x8_1_VEDIC_4x4_1_ADDER_4X4_1_FA_1_HA1_N06579 $D_HI MbreakP           
M_VEDIC_8x8_1_VEDIC_4x4_1_ADDER_4X4_1_FA_1_HA1_M2        
+  VEDIC_8x8_1_VEDIC_4x4_1_ADDER_4X4_1_FA_1_HA1_N06008
+  VEDIC_8x8_1_VEDIC_4x4_1_N00781 0 0 MbreakN           
M_VEDIC_8x8_1_VEDIC_4x4_1_ADDER_4X4_1_FA_1_HA1_M4         $D_HI
+  VEDIC_8x8_1_VEDIC_4x4_1_N00477
+  VEDIC_8x8_1_VEDIC_4x4_1_ADDER_4X4_1_FA_1_HA1_N06579 $D_HI MbreakP           
M_VEDIC_8x8_1_VEDIC_4x4_1_ADDER_4X4_1_FA_1_HA1_M12        
+  VEDIC_8x8_1_VEDIC_4x4_1_ADDER_4X4_1_FA_1_HA1_N09404
+  VEDIC_8x8_1_VEDIC_4x4_1_N00477 VEDIC_8x8_1_VEDIC_4x4_1_ADDER_4X4_1_FA_1_N00311
+  $D_HI MbreakP           
M_VEDIC_8x8_1_VEDIC_4x4_1_ADDER_4X4_1_FA_1_HA1_M1        
+  VEDIC_8x8_1_VEDIC_4x4_1_ADDER_4X4_1_FA_1_HA1_N06579
+  VEDIC_8x8_1_VEDIC_4x4_1_N00477
+  VEDIC_8x8_1_VEDIC_4x4_1_ADDER_4X4_1_FA_1_HA1_N06008 0 MbreakN           
M_VEDIC_8x8_1_VEDIC_4x4_1_ADDER_4X4_1_FA_1_HA1_M6         $D_HI
+  VEDIC_8x8_1_VEDIC_4x4_1_ADDER_4X4_1_FA_1_HA1_N06579
+  VEDIC_8x8_1_VEDIC_4x4_1_ADDER_4X4_1_FA_1_N01184 $D_HI MbreakP           
M_VEDIC_8x8_1_VEDIC_4x4_1_ADDER_4X4_1_FA_1_HA1_M13        
+  VEDIC_8x8_1_VEDIC_4x4_1_ADDER_4X4_1_FA_1_HA1_N09404
+  VEDIC_8x8_1_VEDIC_4x4_1_N00781 VEDIC_8x8_1_VEDIC_4x4_1_ADDER_4X4_1_FA_1_N00311
+  $D_HI MbreakP           
M_VEDIC_8x8_1_VEDIC_4x4_1_ADDER_4X4_1_FA_1_HA1_M3        
+  VEDIC_8x8_1_VEDIC_4x4_1_ADDER_4X4_1_FA_1_N01184
+  VEDIC_8x8_1_VEDIC_4x4_1_ADDER_4X4_1_FA_1_HA1_N06579 0 0 MbreakN           
M_VEDIC_8x8_1_VEDIC_4x4_1_ADDER_4X4_1_FA_1_HA1_M16         $D_HI
+  VEDIC_8x8_1_VEDIC_4x4_1_N00477
+  VEDIC_8x8_1_VEDIC_4x4_1_ADDER_4X4_1_FA_1_HA1_N11593 $D_HI MbreakP           
M_VEDIC_8x8_1_VEDIC_4x4_1_ADDER_4X4_1_FA_1_HA1_M8        
+  VEDIC_8x8_1_VEDIC_4x4_1_ADDER_4X4_1_FA_1_HA1_N09076
+  VEDIC_8x8_1_VEDIC_4x4_1_ADDER_4X4_1_FA_1_HA1_N11628 0 0 MbreakN           
M_VEDIC_8x8_1_VEDIC_4x4_1_ADDER_4X4_1_FA_1_HA1_M14         $D_HI
+  VEDIC_8x8_1_VEDIC_4x4_1_ADDER_4X4_1_FA_1_HA1_N11593
+  VEDIC_8x8_1_VEDIC_4x4_1_ADDER_4X4_1_FA_1_HA1_N09404 $D_HI MbreakP           
M_VEDIC_8x8_1_VEDIC_4x4_1_ADDER_4X4_1_FA_1_HA1_M17         $D_HI
+  VEDIC_8x8_1_VEDIC_4x4_1_N00781
+  VEDIC_8x8_1_VEDIC_4x4_1_ADDER_4X4_1_FA_1_HA1_N11628 $D_HI MbreakP           
M_VEDIC_8x8_1_VEDIC_4x4_1_ADDER_4X4_1_FA_1_HA1_M9        
+  VEDIC_8x8_1_VEDIC_4x4_1_ADDER_4X4_1_FA_1_N00311 VEDIC_8x8_1_VEDIC_4x4_1_N00477
+  VEDIC_8x8_1_VEDIC_4x4_1_ADDER_4X4_1_FA_1_HA1_N09191 0 MbreakN           
M_VEDIC_8x8_1_VEDIC_4x4_1_ADDER_4X4_1_FA_1_HA1_M15         $D_HI
+  VEDIC_8x8_1_VEDIC_4x4_1_ADDER_4X4_1_FA_1_HA1_N11628
+  VEDIC_8x8_1_VEDIC_4x4_1_ADDER_4X4_1_FA_1_HA1_N09404 $D_HI MbreakP           
M_VEDIC_8x8_1_VEDIC_4x4_1_ADDER_4X4_1_FA_1_HA1_M18        
+  VEDIC_8x8_1_VEDIC_4x4_1_ADDER_4X4_1_FA_1_HA1_N11593
+  VEDIC_8x8_1_VEDIC_4x4_1_N00477 0 0 MbreakN           
M_VEDIC_8x8_1_VEDIC_4x4_1_ADDER_4X4_1_FA_1_HA1_M10        
+  VEDIC_8x8_1_VEDIC_4x4_1_ADDER_4X4_1_FA_1_N00311
+  VEDIC_8x8_1_VEDIC_4x4_1_ADDER_4X4_1_FA_1_HA1_N11593
+  VEDIC_8x8_1_VEDIC_4x4_1_ADDER_4X4_1_FA_1_HA1_N09076 0 MbreakN           
M_VEDIC_8x8_1_VEDIC_4x4_1_ADDER_4X4_1_FA_1_HA1_M19        
+  VEDIC_8x8_1_VEDIC_4x4_1_ADDER_4X4_1_FA_1_HA1_N11628
+  VEDIC_8x8_1_VEDIC_4x4_1_N00781 0 0 MbreakN           
M_VEDIC_8x8_1_VEDIC_4x4_1_ADDER_4X4_1_FA_1_M1        
+  VEDIC_8x8_1_VEDIC_4x4_1_ADDER_4X4_1_FA_1_N00946
+  VEDIC_8x8_1_VEDIC_4x4_1_ADDER_4X4_1_FA_1_N01184 0 0 MbreakN           
M_VEDIC_8x8_1_VEDIC_4x4_1_ADDER_4X4_1_FA_1_HA2_M11        
+  VEDIC_8x8_1_VEDIC_4x4_1_ADDER_4X4_1_FA_1_HA2_N09191
+  VEDIC_8x8_1_VEDIC_4x4_1_ADDER_4X4_1_FA_1_N00311 0 0 MbreakN           
M_VEDIC_8x8_1_VEDIC_4x4_1_ADDER_4X4_1_FA_1_HA2_M5         $D_HI
+  VEDIC_8x8_1_VEDIC_4x4_1_ADDER_4X4_1_FA_1_N00311
+  VEDIC_8x8_1_VEDIC_4x4_1_ADDER_4X4_1_FA_1_HA2_N06579 $D_HI MbreakP           
M_VEDIC_8x8_1_VEDIC_4x4_1_ADDER_4X4_1_FA_1_HA2_M2        
+  VEDIC_8x8_1_VEDIC_4x4_1_ADDER_4X4_1_FA_1_HA2_N06008
+  VEDIC_8x8_1_VEDIC_4x4_1_ADDER_4X4_1_FA_1_N00311 0 0 MbreakN           
M_VEDIC_8x8_1_VEDIC_4x4_1_ADDER_4X4_1_FA_1_HA2_M4         $D_HI
+  VEDIC_8x8_1_VEDIC_4x4_1_ADDER_4X4_1_N00531
+  VEDIC_8x8_1_VEDIC_4x4_1_ADDER_4X4_1_FA_1_HA2_N06579 $D_HI MbreakP           
M_VEDIC_8x8_1_VEDIC_4x4_1_ADDER_4X4_1_FA_1_HA2_M12        
+  VEDIC_8x8_1_VEDIC_4x4_1_ADDER_4X4_1_FA_1_HA2_N09404
+  VEDIC_8x8_1_VEDIC_4x4_1_ADDER_4X4_1_N00531 VEDIC_8x8_1_VEDIC_4x4_1_N02880
+  $D_HI MbreakP           
M_VEDIC_8x8_1_VEDIC_4x4_1_ADDER_4X4_1_FA_1_HA2_M1        
+  VEDIC_8x8_1_VEDIC_4x4_1_ADDER_4X4_1_FA_1_HA2_N06579
+  VEDIC_8x8_1_VEDIC_4x4_1_ADDER_4X4_1_N00531
+  VEDIC_8x8_1_VEDIC_4x4_1_ADDER_4X4_1_FA_1_HA2_N06008 0 MbreakN           
M_VEDIC_8x8_1_VEDIC_4x4_1_ADDER_4X4_1_FA_1_HA2_M6         $D_HI
+  VEDIC_8x8_1_VEDIC_4x4_1_ADDER_4X4_1_FA_1_HA2_N06579
+  VEDIC_8x8_1_VEDIC_4x4_1_ADDER_4X4_1_FA_1_N01242 $D_HI MbreakP           
M_VEDIC_8x8_1_VEDIC_4x4_1_ADDER_4X4_1_FA_1_HA2_M13        
+  VEDIC_8x8_1_VEDIC_4x4_1_ADDER_4X4_1_FA_1_HA2_N09404
+  VEDIC_8x8_1_VEDIC_4x4_1_ADDER_4X4_1_FA_1_N00311 VEDIC_8x8_1_VEDIC_4x4_1_N02880
+  $D_HI MbreakP           
M_VEDIC_8x8_1_VEDIC_4x4_1_ADDER_4X4_1_FA_1_HA2_M3        
+  VEDIC_8x8_1_VEDIC_4x4_1_ADDER_4X4_1_FA_1_N01242
+  VEDIC_8x8_1_VEDIC_4x4_1_ADDER_4X4_1_FA_1_HA2_N06579 0 0 MbreakN           
M_VEDIC_8x8_1_VEDIC_4x4_1_ADDER_4X4_1_FA_1_HA2_M16         $D_HI
+  VEDIC_8x8_1_VEDIC_4x4_1_ADDER_4X4_1_N00531
+  VEDIC_8x8_1_VEDIC_4x4_1_ADDER_4X4_1_FA_1_HA2_N11593 $D_HI MbreakP           
M_VEDIC_8x8_1_VEDIC_4x4_1_ADDER_4X4_1_FA_1_HA2_M8        
+  VEDIC_8x8_1_VEDIC_4x4_1_ADDER_4X4_1_FA_1_HA2_N09076
+  VEDIC_8x8_1_VEDIC_4x4_1_ADDER_4X4_1_FA_1_HA2_N11628 0 0 MbreakN           
M_VEDIC_8x8_1_VEDIC_4x4_1_ADDER_4X4_1_FA_1_HA2_M14         $D_HI
+  VEDIC_8x8_1_VEDIC_4x4_1_ADDER_4X4_1_FA_1_HA2_N11593
+  VEDIC_8x8_1_VEDIC_4x4_1_ADDER_4X4_1_FA_1_HA2_N09404 $D_HI MbreakP           
M_VEDIC_8x8_1_VEDIC_4x4_1_ADDER_4X4_1_FA_1_HA2_M17         $D_HI
+  VEDIC_8x8_1_VEDIC_4x4_1_ADDER_4X4_1_FA_1_N00311
+  VEDIC_8x8_1_VEDIC_4x4_1_ADDER_4X4_1_FA_1_HA2_N11628 $D_HI MbreakP           
M_VEDIC_8x8_1_VEDIC_4x4_1_ADDER_4X4_1_FA_1_HA2_M9        
+  VEDIC_8x8_1_VEDIC_4x4_1_N02880 VEDIC_8x8_1_VEDIC_4x4_1_ADDER_4X4_1_N00531
+  VEDIC_8x8_1_VEDIC_4x4_1_ADDER_4X4_1_FA_1_HA2_N09191 0 MbreakN           
M_VEDIC_8x8_1_VEDIC_4x4_1_ADDER_4X4_1_FA_1_HA2_M15         $D_HI
+  VEDIC_8x8_1_VEDIC_4x4_1_ADDER_4X4_1_FA_1_HA2_N11628
+  VEDIC_8x8_1_VEDIC_4x4_1_ADDER_4X4_1_FA_1_HA2_N09404 $D_HI MbreakP           
M_VEDIC_8x8_1_VEDIC_4x4_1_ADDER_4X4_1_FA_1_HA2_M18        
+  VEDIC_8x8_1_VEDIC_4x4_1_ADDER_4X4_1_FA_1_HA2_N11593
+  VEDIC_8x8_1_VEDIC_4x4_1_ADDER_4X4_1_N00531 0 0 MbreakN           
M_VEDIC_8x8_1_VEDIC_4x4_1_ADDER_4X4_1_FA_1_HA2_M10        
+  VEDIC_8x8_1_VEDIC_4x4_1_N02880
+  VEDIC_8x8_1_VEDIC_4x4_1_ADDER_4X4_1_FA_1_HA2_N11593
+  VEDIC_8x8_1_VEDIC_4x4_1_ADDER_4X4_1_FA_1_HA2_N09076 0 MbreakN           
M_VEDIC_8x8_1_VEDIC_4x4_1_ADDER_4X4_1_FA_1_HA2_M19        
+  VEDIC_8x8_1_VEDIC_4x4_1_ADDER_4X4_1_FA_1_HA2_N11628
+  VEDIC_8x8_1_VEDIC_4x4_1_ADDER_4X4_1_FA_1_N00311 0 0 MbreakN           
M_VEDIC_8x8_1_VEDIC_4x4_1_ADDER_4X4_1_FA_1_M3        
+  VEDIC_8x8_1_VEDIC_4x4_1_ADDER_4X4_1_FA_1_N01015
+  VEDIC_8x8_1_VEDIC_4x4_1_ADDER_4X4_1_FA_1_N01242
+  VEDIC_8x8_1_VEDIC_4x4_1_ADDER_4X4_1_FA_1_N00946 $D_HI MbreakP           
M_VEDIC_8x8_1_VEDIC_4x4_1_ADDER_4X4_1_FA_1_M2        
+  VEDIC_8x8_1_VEDIC_4x4_1_ADDER_4X4_1_FA_1_N00946
+  VEDIC_8x8_1_VEDIC_4x4_1_ADDER_4X4_1_FA_1_N01242 0 0 MbreakN           
M_VEDIC_8x8_1_VEDIC_4x4_1_ADDER_4X4_1_FA_1_M4         $D_HI
+  VEDIC_8x8_1_VEDIC_4x4_1_ADDER_4X4_1_FA_1_N01184
+  VEDIC_8x8_1_VEDIC_4x4_1_ADDER_4X4_1_FA_1_N01015 $D_HI MbreakP           
M_VEDIC_8x8_1_VEDIC_4x4_1_ADDER_4X4_1_FA_1_M5         $D_HI
+  VEDIC_8x8_1_VEDIC_4x4_1_ADDER_4X4_1_FA_1_N00946
+  VEDIC_8x8_1_VEDIC_4x4_1_ADDER_4X4_1_N00549 $D_HI MbreakP           
M_VEDIC_8x8_1_VEDIC_4x4_1_ADDER_4X4_1_FA_2_M6        
+  VEDIC_8x8_1_VEDIC_4x4_1_ADDER_4X4_1_N00567
+  VEDIC_8x8_1_VEDIC_4x4_1_ADDER_4X4_1_FA_2_N00946 0 0 MbreakN           
M_VEDIC_8x8_1_VEDIC_4x4_1_ADDER_4X4_1_FA_2_HA1_M11        
+  VEDIC_8x8_1_VEDIC_4x4_1_ADDER_4X4_1_FA_2_HA1_N09191
+  VEDIC_8x8_1_VEDIC_4x4_1_N00799 0 0 MbreakN           
M_VEDIC_8x8_1_VEDIC_4x4_1_ADDER_4X4_1_FA_2_HA1_M5         $D_HI
+  VEDIC_8x8_1_VEDIC_4x4_1_N00799
+  VEDIC_8x8_1_VEDIC_4x4_1_ADDER_4X4_1_FA_2_HA1_N06579 $D_HI MbreakP           
M_VEDIC_8x8_1_VEDIC_4x4_1_ADDER_4X4_1_FA_2_HA1_M2        
+  VEDIC_8x8_1_VEDIC_4x4_1_ADDER_4X4_1_FA_2_HA1_N06008
+  VEDIC_8x8_1_VEDIC_4x4_1_N00799 0 0 MbreakN           
M_VEDIC_8x8_1_VEDIC_4x4_1_ADDER_4X4_1_FA_2_HA1_M4         $D_HI 0
+  VEDIC_8x8_1_VEDIC_4x4_1_ADDER_4X4_1_FA_2_HA1_N06579 $D_HI MbreakP           
M_VEDIC_8x8_1_VEDIC_4x4_1_ADDER_4X4_1_FA_2_HA1_M12        
+  VEDIC_8x8_1_VEDIC_4x4_1_ADDER_4X4_1_FA_2_HA1_N09404 0
+  VEDIC_8x8_1_VEDIC_4x4_1_ADDER_4X4_1_FA_2_N00311 $D_HI MbreakP           
M_VEDIC_8x8_1_VEDIC_4x4_1_ADDER_4X4_1_FA_2_HA1_M1        
+  VEDIC_8x8_1_VEDIC_4x4_1_ADDER_4X4_1_FA_2_HA1_N06579 0
+  VEDIC_8x8_1_VEDIC_4x4_1_ADDER_4X4_1_FA_2_HA1_N06008 0 MbreakN           
M_VEDIC_8x8_1_VEDIC_4x4_1_ADDER_4X4_1_FA_2_HA1_M6         $D_HI
+  VEDIC_8x8_1_VEDIC_4x4_1_ADDER_4X4_1_FA_2_HA1_N06579
+  VEDIC_8x8_1_VEDIC_4x4_1_ADDER_4X4_1_FA_2_N01184 $D_HI MbreakP           
M_VEDIC_8x8_1_VEDIC_4x4_1_ADDER_4X4_1_FA_2_HA1_M13        
+  VEDIC_8x8_1_VEDIC_4x4_1_ADDER_4X4_1_FA_2_HA1_N09404
+  VEDIC_8x8_1_VEDIC_4x4_1_N00799 VEDIC_8x8_1_VEDIC_4x4_1_ADDER_4X4_1_FA_2_N00311
+  $D_HI MbreakP           
M_VEDIC_8x8_1_VEDIC_4x4_1_ADDER_4X4_1_FA_2_HA1_M3        
+  VEDIC_8x8_1_VEDIC_4x4_1_ADDER_4X4_1_FA_2_N01184
+  VEDIC_8x8_1_VEDIC_4x4_1_ADDER_4X4_1_FA_2_HA1_N06579 0 0 MbreakN           
M_VEDIC_8x8_1_VEDIC_4x4_1_ADDER_4X4_1_FA_2_HA1_M16         $D_HI 0
+  VEDIC_8x8_1_VEDIC_4x4_1_ADDER_4X4_1_FA_2_HA1_N11593 $D_HI MbreakP           
M_VEDIC_8x8_1_VEDIC_4x4_1_ADDER_4X4_1_FA_2_HA1_M8        
+  VEDIC_8x8_1_VEDIC_4x4_1_ADDER_4X4_1_FA_2_HA1_N09076
+  VEDIC_8x8_1_VEDIC_4x4_1_ADDER_4X4_1_FA_2_HA1_N11628 0 0 MbreakN           
M_VEDIC_8x8_1_VEDIC_4x4_1_ADDER_4X4_1_FA_2_HA1_M14         $D_HI
+  VEDIC_8x8_1_VEDIC_4x4_1_ADDER_4X4_1_FA_2_HA1_N11593
+  VEDIC_8x8_1_VEDIC_4x4_1_ADDER_4X4_1_FA_2_HA1_N09404 $D_HI MbreakP           
M_VEDIC_8x8_1_VEDIC_4x4_1_ADDER_4X4_1_FA_2_HA1_M17         $D_HI
+  VEDIC_8x8_1_VEDIC_4x4_1_N00799
+  VEDIC_8x8_1_VEDIC_4x4_1_ADDER_4X4_1_FA_2_HA1_N11628 $D_HI MbreakP           
M_VEDIC_8x8_1_VEDIC_4x4_1_ADDER_4X4_1_FA_2_HA1_M9        
+  VEDIC_8x8_1_VEDIC_4x4_1_ADDER_4X4_1_FA_2_N00311 0
+  VEDIC_8x8_1_VEDIC_4x4_1_ADDER_4X4_1_FA_2_HA1_N09191 0 MbreakN           
M_VEDIC_8x8_1_VEDIC_4x4_1_ADDER_4X4_1_FA_2_HA1_M15         $D_HI
+  VEDIC_8x8_1_VEDIC_4x4_1_ADDER_4X4_1_FA_2_HA1_N11628
+  VEDIC_8x8_1_VEDIC_4x4_1_ADDER_4X4_1_FA_2_HA1_N09404 $D_HI MbreakP           
M_VEDIC_8x8_1_VEDIC_4x4_1_ADDER_4X4_1_FA_2_HA1_M18        
+  VEDIC_8x8_1_VEDIC_4x4_1_ADDER_4X4_1_FA_2_HA1_N11593 0 0 0 MbreakN           
M_VEDIC_8x8_1_VEDIC_4x4_1_ADDER_4X4_1_FA_2_HA1_M10        
+  VEDIC_8x8_1_VEDIC_4x4_1_ADDER_4X4_1_FA_2_N00311
+  VEDIC_8x8_1_VEDIC_4x4_1_ADDER_4X4_1_FA_2_HA1_N11593
+  VEDIC_8x8_1_VEDIC_4x4_1_ADDER_4X4_1_FA_2_HA1_N09076 0 MbreakN           
M_VEDIC_8x8_1_VEDIC_4x4_1_ADDER_4X4_1_FA_2_HA1_M19        
+  VEDIC_8x8_1_VEDIC_4x4_1_ADDER_4X4_1_FA_2_HA1_N11628
+  VEDIC_8x8_1_VEDIC_4x4_1_N00799 0 0 MbreakN           
M_VEDIC_8x8_1_VEDIC_4x4_1_ADDER_4X4_1_FA_2_M1        
+  VEDIC_8x8_1_VEDIC_4x4_1_ADDER_4X4_1_FA_2_N00946
+  VEDIC_8x8_1_VEDIC_4x4_1_ADDER_4X4_1_FA_2_N01184 0 0 MbreakN           
M_VEDIC_8x8_1_VEDIC_4x4_1_ADDER_4X4_1_FA_2_HA2_M11        
+  VEDIC_8x8_1_VEDIC_4x4_1_ADDER_4X4_1_FA_2_HA2_N09191
+  VEDIC_8x8_1_VEDIC_4x4_1_ADDER_4X4_1_FA_2_N00311 0 0 MbreakN           
M_VEDIC_8x8_1_VEDIC_4x4_1_ADDER_4X4_1_FA_2_HA2_M5         $D_HI
+  VEDIC_8x8_1_VEDIC_4x4_1_ADDER_4X4_1_FA_2_N00311
+  VEDIC_8x8_1_VEDIC_4x4_1_ADDER_4X4_1_FA_2_HA2_N06579 $D_HI MbreakP           
M_VEDIC_8x8_1_VEDIC_4x4_1_ADDER_4X4_1_FA_2_HA2_M2        
+  VEDIC_8x8_1_VEDIC_4x4_1_ADDER_4X4_1_FA_2_HA2_N06008
+  VEDIC_8x8_1_VEDIC_4x4_1_ADDER_4X4_1_FA_2_N00311 0 0 MbreakN           
M_VEDIC_8x8_1_VEDIC_4x4_1_ADDER_4X4_1_FA_2_HA2_M4         $D_HI
+  VEDIC_8x8_1_VEDIC_4x4_1_ADDER_4X4_1_N00549
+  VEDIC_8x8_1_VEDIC_4x4_1_ADDER_4X4_1_FA_2_HA2_N06579 $D_HI MbreakP           
M_VEDIC_8x8_1_VEDIC_4x4_1_ADDER_4X4_1_FA_2_HA2_M12        
+  VEDIC_8x8_1_VEDIC_4x4_1_ADDER_4X4_1_FA_2_HA2_N09404
+  VEDIC_8x8_1_VEDIC_4x4_1_ADDER_4X4_1_N00549 VEDIC_8x8_1_VEDIC_4x4_1_N02898
+  $D_HI MbreakP           
M_VEDIC_8x8_1_VEDIC_4x4_1_ADDER_4X4_1_FA_2_HA2_M1        
+  VEDIC_8x8_1_VEDIC_4x4_1_ADDER_4X4_1_FA_2_HA2_N06579
+  VEDIC_8x8_1_VEDIC_4x4_1_ADDER_4X4_1_N00549
+  VEDIC_8x8_1_VEDIC_4x4_1_ADDER_4X4_1_FA_2_HA2_N06008 0 MbreakN           
M_VEDIC_8x8_1_VEDIC_4x4_1_ADDER_4X4_1_FA_2_HA2_M6         $D_HI
+  VEDIC_8x8_1_VEDIC_4x4_1_ADDER_4X4_1_FA_2_HA2_N06579
+  VEDIC_8x8_1_VEDIC_4x4_1_ADDER_4X4_1_FA_2_N01242 $D_HI MbreakP           
M_VEDIC_8x8_1_VEDIC_4x4_1_ADDER_4X4_1_FA_2_HA2_M13        
+  VEDIC_8x8_1_VEDIC_4x4_1_ADDER_4X4_1_FA_2_HA2_N09404
+  VEDIC_8x8_1_VEDIC_4x4_1_ADDER_4X4_1_FA_2_N00311 VEDIC_8x8_1_VEDIC_4x4_1_N02898
+  $D_HI MbreakP           
M_VEDIC_8x8_1_VEDIC_4x4_1_ADDER_4X4_1_FA_2_HA2_M3        
+  VEDIC_8x8_1_VEDIC_4x4_1_ADDER_4X4_1_FA_2_N01242
+  VEDIC_8x8_1_VEDIC_4x4_1_ADDER_4X4_1_FA_2_HA2_N06579 0 0 MbreakN           
M_VEDIC_8x8_1_VEDIC_4x4_1_ADDER_4X4_1_FA_2_HA2_M16         $D_HI
+  VEDIC_8x8_1_VEDIC_4x4_1_ADDER_4X4_1_N00549
+  VEDIC_8x8_1_VEDIC_4x4_1_ADDER_4X4_1_FA_2_HA2_N11593 $D_HI MbreakP           
M_VEDIC_8x8_1_VEDIC_4x4_1_ADDER_4X4_1_FA_2_HA2_M8        
+  VEDIC_8x8_1_VEDIC_4x4_1_ADDER_4X4_1_FA_2_HA2_N09076
+  VEDIC_8x8_1_VEDIC_4x4_1_ADDER_4X4_1_FA_2_HA2_N11628 0 0 MbreakN           
M_VEDIC_8x8_1_VEDIC_4x4_1_ADDER_4X4_1_FA_2_HA2_M14         $D_HI
+  VEDIC_8x8_1_VEDIC_4x4_1_ADDER_4X4_1_FA_2_HA2_N11593
+  VEDIC_8x8_1_VEDIC_4x4_1_ADDER_4X4_1_FA_2_HA2_N09404 $D_HI MbreakP           
M_VEDIC_8x8_1_VEDIC_4x4_1_ADDER_4X4_1_FA_2_HA2_M17         $D_HI
+  VEDIC_8x8_1_VEDIC_4x4_1_ADDER_4X4_1_FA_2_N00311
+  VEDIC_8x8_1_VEDIC_4x4_1_ADDER_4X4_1_FA_2_HA2_N11628 $D_HI MbreakP           
M_VEDIC_8x8_1_VEDIC_4x4_1_ADDER_4X4_1_FA_2_HA2_M9        
+  VEDIC_8x8_1_VEDIC_4x4_1_N02898 VEDIC_8x8_1_VEDIC_4x4_1_ADDER_4X4_1_N00549
+  VEDIC_8x8_1_VEDIC_4x4_1_ADDER_4X4_1_FA_2_HA2_N09191 0 MbreakN           
M_VEDIC_8x8_1_VEDIC_4x4_1_ADDER_4X4_1_FA_2_HA2_M15         $D_HI
+  VEDIC_8x8_1_VEDIC_4x4_1_ADDER_4X4_1_FA_2_HA2_N11628
+  VEDIC_8x8_1_VEDIC_4x4_1_ADDER_4X4_1_FA_2_HA2_N09404 $D_HI MbreakP           
M_VEDIC_8x8_1_VEDIC_4x4_1_ADDER_4X4_1_FA_2_HA2_M18        
+  VEDIC_8x8_1_VEDIC_4x4_1_ADDER_4X4_1_FA_2_HA2_N11593
+  VEDIC_8x8_1_VEDIC_4x4_1_ADDER_4X4_1_N00549 0 0 MbreakN           
M_VEDIC_8x8_1_VEDIC_4x4_1_ADDER_4X4_1_FA_2_HA2_M10        
+  VEDIC_8x8_1_VEDIC_4x4_1_N02898
+  VEDIC_8x8_1_VEDIC_4x4_1_ADDER_4X4_1_FA_2_HA2_N11593
+  VEDIC_8x8_1_VEDIC_4x4_1_ADDER_4X4_1_FA_2_HA2_N09076 0 MbreakN           
M_VEDIC_8x8_1_VEDIC_4x4_1_ADDER_4X4_1_FA_2_HA2_M19        
+  VEDIC_8x8_1_VEDIC_4x4_1_ADDER_4X4_1_FA_2_HA2_N11628
+  VEDIC_8x8_1_VEDIC_4x4_1_ADDER_4X4_1_FA_2_N00311 0 0 MbreakN           
M_VEDIC_8x8_1_VEDIC_4x4_1_ADDER_4X4_1_FA_2_M3        
+  VEDIC_8x8_1_VEDIC_4x4_1_ADDER_4X4_1_FA_2_N01015
+  VEDIC_8x8_1_VEDIC_4x4_1_ADDER_4X4_1_FA_2_N01242
+  VEDIC_8x8_1_VEDIC_4x4_1_ADDER_4X4_1_FA_2_N00946 $D_HI MbreakP           
M_VEDIC_8x8_1_VEDIC_4x4_1_ADDER_4X4_1_FA_2_M2        
+  VEDIC_8x8_1_VEDIC_4x4_1_ADDER_4X4_1_FA_2_N00946
+  VEDIC_8x8_1_VEDIC_4x4_1_ADDER_4X4_1_FA_2_N01242 0 0 MbreakN           
M_VEDIC_8x8_1_VEDIC_4x4_1_ADDER_4X4_1_FA_2_M4         $D_HI
+  VEDIC_8x8_1_VEDIC_4x4_1_ADDER_4X4_1_FA_2_N01184
+  VEDIC_8x8_1_VEDIC_4x4_1_ADDER_4X4_1_FA_2_N01015 $D_HI MbreakP           
M_VEDIC_8x8_1_VEDIC_4x4_1_ADDER_4X4_1_FA_2_M5         $D_HI
+  VEDIC_8x8_1_VEDIC_4x4_1_ADDER_4X4_1_FA_2_N00946
+  VEDIC_8x8_1_VEDIC_4x4_1_ADDER_4X4_1_N00567 $D_HI MbreakP           
M_VEDIC_8x8_1_VEDIC_4x4_1_ADDER_4X4_1_FA_3_M6        
+  VEDIC_8x8_1_VEDIC_4x4_1_N07833 VEDIC_8x8_1_VEDIC_4x4_1_ADDER_4X4_1_FA_3_N00946
+  0 0 MbreakN           
M_VEDIC_8x8_1_VEDIC_4x4_1_ADDER_4X4_1_FA_3_HA1_M11        
+  VEDIC_8x8_1_VEDIC_4x4_1_ADDER_4X4_1_FA_3_HA1_N09191
+  VEDIC_8x8_1_VEDIC_4x4_1_N00828 0 0 MbreakN           
M_VEDIC_8x8_1_VEDIC_4x4_1_ADDER_4X4_1_FA_3_HA1_M5         $D_HI
+  VEDIC_8x8_1_VEDIC_4x4_1_N00828
+  VEDIC_8x8_1_VEDIC_4x4_1_ADDER_4X4_1_FA_3_HA1_N06579 $D_HI MbreakP           
M_VEDIC_8x8_1_VEDIC_4x4_1_ADDER_4X4_1_FA_3_HA1_M2        
+  VEDIC_8x8_1_VEDIC_4x4_1_ADDER_4X4_1_FA_3_HA1_N06008
+  VEDIC_8x8_1_VEDIC_4x4_1_N00828 0 0 MbreakN           
M_VEDIC_8x8_1_VEDIC_4x4_1_ADDER_4X4_1_FA_3_HA1_M4         $D_HI 0
+  VEDIC_8x8_1_VEDIC_4x4_1_ADDER_4X4_1_FA_3_HA1_N06579 $D_HI MbreakP           
M_VEDIC_8x8_1_VEDIC_4x4_1_ADDER_4X4_1_FA_3_HA1_M12        
+  VEDIC_8x8_1_VEDIC_4x4_1_ADDER_4X4_1_FA_3_HA1_N09404 0
+  VEDIC_8x8_1_VEDIC_4x4_1_ADDER_4X4_1_FA_3_N00311 $D_HI MbreakP           
M_VEDIC_8x8_1_VEDIC_4x4_1_ADDER_4X4_1_FA_3_HA1_M1        
+  VEDIC_8x8_1_VEDIC_4x4_1_ADDER_4X4_1_FA_3_HA1_N06579 0
+  VEDIC_8x8_1_VEDIC_4x4_1_ADDER_4X4_1_FA_3_HA1_N06008 0 MbreakN           
M_VEDIC_8x8_1_VEDIC_4x4_1_ADDER_4X4_1_FA_3_HA1_M6         $D_HI
+  VEDIC_8x8_1_VEDIC_4x4_1_ADDER_4X4_1_FA_3_HA1_N06579
+  VEDIC_8x8_1_VEDIC_4x4_1_ADDER_4X4_1_FA_3_N01184 $D_HI MbreakP           
M_VEDIC_8x8_1_VEDIC_4x4_1_ADDER_4X4_1_FA_3_HA1_M13        
+  VEDIC_8x8_1_VEDIC_4x4_1_ADDER_4X4_1_FA_3_HA1_N09404
+  VEDIC_8x8_1_VEDIC_4x4_1_N00828 VEDIC_8x8_1_VEDIC_4x4_1_ADDER_4X4_1_FA_3_N00311
+  $D_HI MbreakP           
M_VEDIC_8x8_1_VEDIC_4x4_1_ADDER_4X4_1_FA_3_HA1_M3        
+  VEDIC_8x8_1_VEDIC_4x4_1_ADDER_4X4_1_FA_3_N01184
+  VEDIC_8x8_1_VEDIC_4x4_1_ADDER_4X4_1_FA_3_HA1_N06579 0 0 MbreakN           
M_VEDIC_8x8_1_VEDIC_4x4_1_ADDER_4X4_1_FA_3_HA1_M16         $D_HI 0
+  VEDIC_8x8_1_VEDIC_4x4_1_ADDER_4X4_1_FA_3_HA1_N11593 $D_HI MbreakP           
M_VEDIC_8x8_1_VEDIC_4x4_1_ADDER_4X4_1_FA_3_HA1_M8        
+  VEDIC_8x8_1_VEDIC_4x4_1_ADDER_4X4_1_FA_3_HA1_N09076
+  VEDIC_8x8_1_VEDIC_4x4_1_ADDER_4X4_1_FA_3_HA1_N11628 0 0 MbreakN           
M_VEDIC_8x8_1_VEDIC_4x4_1_ADDER_4X4_1_FA_3_HA1_M14         $D_HI
+  VEDIC_8x8_1_VEDIC_4x4_1_ADDER_4X4_1_FA_3_HA1_N11593
+  VEDIC_8x8_1_VEDIC_4x4_1_ADDER_4X4_1_FA_3_HA1_N09404 $D_HI MbreakP           
M_VEDIC_8x8_1_VEDIC_4x4_1_ADDER_4X4_1_FA_3_HA1_M17         $D_HI
+  VEDIC_8x8_1_VEDIC_4x4_1_N00828
+  VEDIC_8x8_1_VEDIC_4x4_1_ADDER_4X4_1_FA_3_HA1_N11628 $D_HI MbreakP           
M_VEDIC_8x8_1_VEDIC_4x4_1_ADDER_4X4_1_FA_3_HA1_M9        
+  VEDIC_8x8_1_VEDIC_4x4_1_ADDER_4X4_1_FA_3_N00311 0
+  VEDIC_8x8_1_VEDIC_4x4_1_ADDER_4X4_1_FA_3_HA1_N09191 0 MbreakN           
M_VEDIC_8x8_1_VEDIC_4x4_1_ADDER_4X4_1_FA_3_HA1_M15         $D_HI
+  VEDIC_8x8_1_VEDIC_4x4_1_ADDER_4X4_1_FA_3_HA1_N11628
+  VEDIC_8x8_1_VEDIC_4x4_1_ADDER_4X4_1_FA_3_HA1_N09404 $D_HI MbreakP           
M_VEDIC_8x8_1_VEDIC_4x4_1_ADDER_4X4_1_FA_3_HA1_M18        
[...]

(VEDIC_8x8_1_VEDIC_4x4_4_ADDER_6x6_2_4x4_1_FA_1_HA2_N09404)    5.0000           

(VEDIC_8x8_1_VEDIC_4x4_4_ADDER_6x6_2_4x4_1_FA_1_HA2_N11593) 50.10E-09           

(VEDIC_8x8_1_VEDIC_4x4_4_ADDER_6x6_2_4x4_1_FA_1_HA2_N11628) 50.10E-09           

(VEDIC_8x8_1_VEDIC_4x4_4_ADDER_6x6_2_4x4_1_FA_2_HA1_N06008) 29.68E-15           

(VEDIC_8x8_1_VEDIC_4x4_4_ADDER_6x6_2_4x4_1_FA_2_HA1_N06579)    5.0000           

(VEDIC_8x8_1_VEDIC_4x4_4_ADDER_6x6_2_4x4_1_FA_2_HA1_N09076)    4.9990           

(VEDIC_8x8_1_VEDIC_4x4_4_ADDER_6x6_2_4x4_1_FA_2_HA1_N09191) 36.13E-15           

(VEDIC_8x8_1_VEDIC_4x4_4_ADDER_6x6_2_4x4_1_FA_2_HA1_N09404)    5.0000           

(VEDIC_8x8_1_VEDIC_4x4_4_ADDER_6x6_2_4x4_1_FA_2_HA1_N11593)    5.0000           

(VEDIC_8x8_1_VEDIC_4x4_4_ADDER_6x6_2_4x4_1_FA_2_HA1_N11628) 50.10E-09           

(VEDIC_8x8_1_VEDIC_4x4_4_ADDER_6x6_2_4x4_1_FA_2_HA2_N06008) 100.2E-09           

(VEDIC_8x8_1_VEDIC_4x4_4_ADDER_6x6_2_4x4_1_FA_2_HA2_N06579) 200.4E-09           

(VEDIC_8x8_1_VEDIC_4x4_4_ADDER_6x6_2_4x4_1_FA_2_HA2_N09076)-498.0E-09           

(VEDIC_8x8_1_VEDIC_4x4_4_ADDER_6x6_2_4x4_1_FA_2_HA2_N09191) 100.2E-09           

(VEDIC_8x8_1_VEDIC_4x4_4_ADDER_6x6_2_4x4_1_FA_2_HA2_N09404)    5.0000           

(VEDIC_8x8_1_VEDIC_4x4_4_ADDER_6x6_2_4x4_1_FA_2_HA2_N11593) 50.10E-09           

(VEDIC_8x8_1_VEDIC_4x4_4_ADDER_6x6_2_4x4_1_FA_2_HA2_N11628) 50.10E-09           

(VEDIC_8x8_1_VEDIC_4x4_4_ADDER_6x6_2_4x4_1_FA_3_HA1_N06008) 100.2E-09           

(VEDIC_8x8_1_VEDIC_4x4_4_ADDER_6x6_2_4x4_1_FA_3_HA1_N06579) 200.4E-09           

(VEDIC_8x8_1_VEDIC_4x4_4_ADDER_6x6_2_4x4_1_FA_3_HA1_N09076)-449.1E-09           

(VEDIC_8x8_1_VEDIC_4x4_4_ADDER_6x6_2_4x4_1_FA_3_HA1_N09191) 100.2E-09           

(VEDIC_8x8_1_VEDIC_4x4_4_ADDER_6x6_2_4x4_1_FA_3_HA1_N09404)    5.0000           

(VEDIC_8x8_1_VEDIC_4x4_4_ADDER_6x6_2_4x4_1_FA_3_HA1_N11593) 50.10E-09           

(VEDIC_8x8_1_VEDIC_4x4_4_ADDER_6x6_2_4x4_1_FA_3_HA1_N11628) 50.10E-09           

(VEDIC_8x8_1_VEDIC_4x4_4_ADDER_6x6_2_4x4_1_FA_3_HA2_N06008)    4.9990           

(VEDIC_8x8_1_VEDIC_4x4_4_ADDER_6x6_2_4x4_1_FA_3_HA2_N06579)    5.0000           

(VEDIC_8x8_1_VEDIC_4x4_4_ADDER_6x6_2_4x4_1_FA_3_HA2_N09076) 250.9E-18           

(VEDIC_8x8_1_VEDIC_4x4_4_ADDER_6x6_2_4x4_1_FA_3_HA2_N09191)    4.9990           

(VEDIC_8x8_1_VEDIC_4x4_4_ADDER_6x6_2_4x4_1_FA_3_HA2_N09404)    5.0000           

(VEDIC_8x8_1_VEDIC_4x4_4_ADDER_6x6_2_4x4_1_FA_3_HA2_N11593) 50.10E-09           

(VEDIC_8x8_1_VEDIC_4x4_4_ADDER_6x6_2_4x4_1_FA_3_HA2_N11628)    5.0000           

(VEDIC_8x8_1_ADDER_12x12_1_ADDER_8x8_1_ADDER_6x6_1_FA_1_N00311)    4.8705       

(VEDIC_8x8_1_ADDER_12x12_1_ADDER_8x8_1_ADDER_6x6_1_FA_1_N00946)    5.0000       

(VEDIC_8x8_1_ADDER_12x12_1_ADDER_8x8_1_ADDER_6x6_1_FA_1_N01015)    5.0000       

(VEDIC_8x8_1_ADDER_12x12_1_ADDER_8x8_1_ADDER_6x6_1_FA_1_N01184) 50.10E-09       

(VEDIC_8x8_1_ADDER_12x12_1_ADDER_8x8_1_ADDER_6x6_1_FA_1_N01242) 50.10E-09       

(VEDIC_8x8_1_ADDER_12x12_1_ADDER_8x8_1_ADDER_6x6_1_FA_2_N00311)    4.8705       

(VEDIC_8x8_1_ADDER_12x12_1_ADDER_8x8_1_ADDER_6x6_1_FA_2_N00946)    5.0000       

(VEDIC_8x8_1_ADDER_12x12_1_ADDER_8x8_1_ADDER_6x6_1_FA_2_N01015)    5.0000       

(VEDIC_8x8_1_ADDER_12x12_1_ADDER_8x8_1_ADDER_6x6_1_FA_2_N01184) 50.10E-09       

(VEDIC_8x8_1_ADDER_12x12_1_ADDER_8x8_1_ADDER_6x6_1_FA_2_N01242) 50.10E-09       

(VEDIC_8x8_1_ADDER_12x12_2_ADDER_8x8_1_ADDER_6x6_1_FA_1_N00311)     .0274       

(VEDIC_8x8_1_ADDER_12x12_2_ADDER_8x8_1_ADDER_6x6_1_FA_1_N00946) 150.9E-09       

(VEDIC_8x8_1_ADDER_12x12_2_ADDER_8x8_1_ADDER_6x6_1_FA_1_N01015)     .0010       

(VEDIC_8x8_1_ADDER_12x12_2_ADDER_8x8_1_ADDER_6x6_1_FA_1_N01184)    4.9999       

(VEDIC_8x8_1_ADDER_12x12_2_ADDER_8x8_1_ADDER_6x6_1_FA_1_N01242) 50.68E-09       

(VEDIC_8x8_1_ADDER_12x12_2_ADDER_8x8_1_ADDER_6x6_1_FA_2_N00311)     .0274       

(VEDIC_8x8_1_ADDER_12x12_2_ADDER_8x8_1_ADDER_6x6_1_FA_2_N00946) 150.9E-09       

(VEDIC_8x8_1_ADDER_12x12_2_ADDER_8x8_1_ADDER_6x6_1_FA_2_N01015)     .0010       

(VEDIC_8x8_1_ADDER_12x12_2_ADDER_8x8_1_ADDER_6x6_1_FA_2_N01184)    4.9999       

(VEDIC_8x8_1_ADDER_12x12_2_ADDER_8x8_1_ADDER_6x6_1_FA_2_N01242) 50.68E-09       

(VEDIC_8x8_1_ADDER_12x12_1_ADDER_8x8_1_ADDER_6x6_1_4x4_1_N00531) 50.10E-09      

(VEDIC_8x8_1_ADDER_12x12_1_ADDER_8x8_1_ADDER_6x6_1_4x4_1_N00549) 50.10E-09      

(VEDIC_8x8_1_ADDER_12x12_1_ADDER_8x8_1_ADDER_6x6_1_4x4_1_N00567) 50.10E-09      

(VEDIC_8x8_1_ADDER_12x12_2_ADDER_8x8_1_ADDER_6x6_1_4x4_1_N00531)    4.9999      

(VEDIC_8x8_1_ADDER_12x12_2_ADDER_8x8_1_ADDER_6x6_1_4x4_1_N00549)    5.0000      

(VEDIC_8x8_1_ADDER_12x12_2_ADDER_8x8_1_ADDER_6x6_1_4x4_1_N00567)    5.0000      

(VEDIC_8x8_1_ADDER_12x12_1_ADDER_8x8_1_ADDER_6x6_1_FA_1_HA1_N06008)    2.9121   

(VEDIC_8x8_1_ADDER_12x12_1_ADDER_8x8_1_ADDER_6x6_1_FA_1_HA1_N06579)    5.0000   

(VEDIC_8x8_1_ADDER_12x12_1_ADDER_8x8_1_ADDER_6x6_1_FA_1_HA1_N09076)     .0667   

(VEDIC_8x8_1_ADDER_12x12_1_ADDER_8x8_1_ADDER_6x6_1_FA_1_HA1_N09191)    2.9121   

(VEDIC_8x8_1_ADDER_12x12_1_ADDER_8x8_1_ADDER_6x6_1_FA_1_HA1_N09404)    4.9187   

(VEDIC_8x8_1_ADDER_12x12_1_ADDER_8x8_1_ADDER_6x6_1_FA_1_HA1_N11593)     .8809   

(VEDIC_8x8_1_ADDER_12x12_1_ADDER_8x8_1_ADDER_6x6_1_FA_1_HA1_N11628)    5.0000   

(VEDIC_8x8_1_ADDER_12x12_1_ADDER_8x8_1_ADDER_6x6_1_FA_1_HA2_N06008) 257.7E-18   

(VEDIC_8x8_1_ADDER_12x12_1_ADDER_8x8_1_ADDER_6x6_1_FA_1_HA2_N06579)    5.0000   

(VEDIC_8x8_1_ADDER_12x12_1_ADDER_8x8_1_ADDER_6x6_1_FA_1_HA2_N09076)    4.9835   

(VEDIC_8x8_1_ADDER_12x12_1_ADDER_8x8_1_ADDER_6x6_1_FA_1_HA2_N09191) 257.7E-18   

(VEDIC_8x8_1_ADDER_12x12_1_ADDER_8x8_1_ADDER_6x6_1_FA_1_HA2_N09404)    4.9917   

(VEDIC_8x8_1_ADDER_12x12_1_ADDER_8x8_1_ADDER_6x6_1_FA_1_HA2_N11593)    5.0000   

(VEDIC_8x8_1_ADDER_12x12_1_ADDER_8x8_1_ADDER_6x6_1_FA_1_HA2_N11628)     .0017   

(VEDIC_8x8_1_ADDER_12x12_1_ADDER_8x8_1_ADDER_6x6_1_FA_2_HA1_N06008)    2.9121   

(VEDIC_8x8_1_ADDER_12x12_1_ADDER_8x8_1_ADDER_6x6_1_FA_2_HA1_N06579)    5.0000   

(VEDIC_8x8_1_ADDER_12x12_1_ADDER_8x8_1_ADDER_6x6_1_FA_2_HA1_N09076)     .0667   

(VEDIC_8x8_1_ADDER_12x12_1_ADDER_8x8_1_ADDER_6x6_1_FA_2_HA1_N09191)    2.9121   

(VEDIC_8x8_1_ADDER_12x12_1_ADDER_8x8_1_ADDER_6x6_1_FA_2_HA1_N09404)    4.9187   

(VEDIC_8x8_1_ADDER_12x12_1_ADDER_8x8_1_ADDER_6x6_1_FA_2_HA1_N11593)     .8809   

(VEDIC_8x8_1_ADDER_12x12_1_ADDER_8x8_1_ADDER_6x6_1_FA_2_HA1_N11628)    5.0000   

(VEDIC_8x8_1_ADDER_12x12_1_ADDER_8x8_1_ADDER_6x6_1_FA_2_HA2_N06008) 257.7E-18   

(VEDIC_8x8_1_ADDER_12x12_1_ADDER_8x8_1_ADDER_6x6_1_FA_2_HA2_N06579)    5.0000   

(VEDIC_8x8_1_ADDER_12x12_1_ADDER_8x8_1_ADDER_6x6_1_FA_2_HA2_N09076)    4.9835   

(VEDIC_8x8_1_ADDER_12x12_1_ADDER_8x8_1_ADDER_6x6_1_FA_2_HA2_N09191) 257.7E-18   

(VEDIC_8x8_1_ADDER_12x12_1_ADDER_8x8_1_ADDER_6x6_1_FA_2_HA2_N09404)    4.9917   

(VEDIC_8x8_1_ADDER_12x12_1_ADDER_8x8_1_ADDER_6x6_1_FA_2_HA2_N11593)    5.0000   

(VEDIC_8x8_1_ADDER_12x12_1_ADDER_8x8_1_ADDER_6x6_1_FA_2_HA2_N11628)     .0017   

(VEDIC_8x8_1_ADDER_12x12_2_ADDER_8x8_1_ADDER_6x6_1_FA_1_HA1_N06008)     .0137   

(VEDIC_8x8_1_ADDER_12x12_2_ADDER_8x8_1_ADDER_6x6_1_FA_1_HA1_N06579)     .0285   

(VEDIC_8x8_1_ADDER_12x12_2_ADDER_8x8_1_ADDER_6x6_1_FA_1_HA1_N09076)     .0146   

(VEDIC_8x8_1_ADDER_12x12_2_ADDER_8x8_1_ADDER_6x6_1_FA_1_HA1_N09191)     .0132   

(VEDIC_8x8_1_ADDER_12x12_2_ADDER_8x8_1_ADDER_6x6_1_FA_1_HA1_N09404)    4.9934   

(VEDIC_8x8_1_ADDER_12x12_2_ADDER_8x8_1_ADDER_6x6_1_FA_1_HA1_N11593)     .0147   

(VEDIC_8x8_1_ADDER_12x12_2_ADDER_8x8_1_ADDER_6x6_1_FA_1_HA1_N11628) 26.88E-06   

(VEDIC_8x8_1_ADDER_12x12_2_ADDER_8x8_1_ADDER_6x6_1_FA_1_HA2_N06008)    4.9726   

(VEDIC_8x8_1_ADDER_12x12_2_ADDER_8x8_1_ADDER_6x6_1_FA_1_HA2_N06579)    4.9999   

(VEDIC_8x8_1_ADDER_12x12_2_ADDER_8x8_1_ADDER_6x6_1_FA_1_HA2_N09076) 251.0E-18   

(VEDIC_8x8_1_ADDER_12x12_2_ADDER_8x8_1_ADDER_6x6_1_FA_1_HA2_N09191)    4.9726   

(VEDIC_8x8_1_ADDER_12x12_2_ADDER_8x8_1_ADDER_6x6_1_FA_1_HA2_N09404)    4.9999   

(VEDIC_8x8_1_ADDER_12x12_2_ADDER_8x8_1_ADDER_6x6_1_FA_1_HA2_N11593) 50.10E-09   

(VEDIC_8x8_1_ADDER_12x12_2_ADDER_8x8_1_ADDER_6x6_1_FA_1_HA2_N11628)    4.9999   

(VEDIC_8x8_1_ADDER_12x12_2_ADDER_8x8_1_ADDER_6x6_1_FA_2_HA1_N06008)     .0137   

(VEDIC_8x8_1_ADDER_12x12_2_ADDER_8x8_1_ADDER_6x6_1_FA_2_HA1_N06579)     .0285   

(VEDIC_8x8_1_ADDER_12x12_2_ADDER_8x8_1_ADDER_6x6_1_FA_2_HA1_N09076)     .0146   

(VEDIC_8x8_1_ADDER_12x12_2_ADDER_8x8_1_ADDER_6x6_1_FA_2_HA1_N09191)     .0132   

(VEDIC_8x8_1_ADDER_12x12_2_ADDER_8x8_1_ADDER_6x6_1_FA_2_HA1_N09404)    4.9934   

(VEDIC_8x8_1_ADDER_12x12_2_ADDER_8x8_1_ADDER_6x6_1_FA_2_HA1_N11593)     .0147   

(VEDIC_8x8_1_ADDER_12x12_2_ADDER_8x8_1_ADDER_6x6_1_FA_2_HA1_N11628) 26.88E-06   

(VEDIC_8x8_1_ADDER_12x12_2_ADDER_8x8_1_ADDER_6x6_1_FA_2_HA2_N06008)    4.9726   

(VEDIC_8x8_1_ADDER_12x12_2_ADDER_8x8_1_ADDER_6x6_1_FA_2_HA2_N06579)    4.9999   

(VEDIC_8x8_1_ADDER_12x12_2_ADDER_8x8_1_ADDER_6x6_1_FA_2_HA2_N09076) 251.0E-18   

(VEDIC_8x8_1_ADDER_12x12_2_ADDER_8x8_1_ADDER_6x6_1_FA_2_HA2_N09191)    4.9726   

(VEDIC_8x8_1_ADDER_12x12_2_ADDER_8x8_1_ADDER_6x6_1_FA_2_HA2_N09404)    4.9999   

(VEDIC_8x8_1_ADDER_12x12_2_ADDER_8x8_1_ADDER_6x6_1_FA_2_HA2_N11593) 50.10E-09   

(VEDIC_8x8_1_ADDER_12x12_2_ADDER_8x8_1_ADDER_6x6_1_FA_2_HA2_N11628)    4.9999   

(VEDIC_8x8_1_ADDER_12x12_1_ADDER_8x8_1_ADDER_6x6_1_4x4_1_FA_1_N00311)    4.8705 

(VEDIC_8x8_1_ADDER_12x12_1_ADDER_8x8_1_ADDER_6x6_1_4x4_1_FA_1_N00946)    5.0000 

(VEDIC_8x8_1_ADDER_12x12_1_ADDER_8x8_1_ADDER_6x6_1_4x4_1_FA_1_N01015)    5.0000 

(VEDIC_8x8_1_ADDER_12x12_1_ADDER_8x8_1_ADDER_6x6_1_4x4_1_FA_1_N01184) 50.10E-09 

(VEDIC_8x8_1_ADDER_12x12_1_ADDER_8x8_1_ADDER_6x6_1_4x4_1_FA_1_N01242) 50.10E-09 

(VEDIC_8x8_1_ADDER_12x12_1_ADDER_8x8_1_ADDER_6x6_1_4x4_1_FA_2_N00311)    4.8705 

(VEDIC_8x8_1_ADDER_12x12_1_ADDER_8x8_1_ADDER_6x6_1_4x4_1_FA_2_N00946)    5.0000 

(VEDIC_8x8_1_ADDER_12x12_1_ADDER_8x8_1_ADDER_6x6_1_4x4_1_FA_2_N01015)    5.0000 

(VEDIC_8x8_1_ADDER_12x12_1_ADDER_8x8_1_ADDER_6x6_1_4x4_1_FA_2_N01184) 50.10E-09 

(VEDIC_8x8_1_ADDER_12x12_1_ADDER_8x8_1_ADDER_6x6_1_4x4_1_FA_2_N01242) 50.10E-09 

(VEDIC_8x8_1_ADDER_12x12_1_ADDER_8x8_1_ADDER_6x6_1_4x4_1_FA_3_N00311)    4.8705 

(VEDIC_8x8_1_ADDER_12x12_1_ADDER_8x8_1_ADDER_6x6_1_4x4_1_FA_3_N00946)    5.0000 

(VEDIC_8x8_1_ADDER_12x12_1_ADDER_8x8_1_ADDER_6x6_1_4x4_1_FA_3_N01015)    5.0000 

(VEDIC_8x8_1_ADDER_12x12_1_ADDER_8x8_1_ADDER_6x6_1_4x4_1_FA_3_N01184) 50.10E-09 

(VEDIC_8x8_1_ADDER_12x12_1_ADDER_8x8_1_ADDER_6x6_1_4x4_1_FA_3_N01242) 50.10E-09 

(VEDIC_8x8_1_ADDER_12x12_1_ADDER_8x8_1_ADDER_6x6_1_4x4_1_HA_1_N06008)    2.9121 

(VEDIC_8x8_1_ADDER_12x12_1_ADDER_8x8_1_ADDER_6x6_1_4x4_1_HA_1_N06579)    5.0000 

(VEDIC_8x8_1_ADDER_12x12_1_ADDER_8x8_1_ADDER_6x6_1_4x4_1_HA_1_N09076)     .0667 

(VEDIC_8x8_1_ADDER_12x12_1_ADDER_8x8_1_ADDER_6x6_1_4x4_1_HA_1_N09191)    2.9121 

(VEDIC_8x8_1_ADDER_12x12_1_ADDER_8x8_1_ADDER_6x6_1_4x4_1_HA_1_N09404)    4.9897 

(VEDIC_8x8_1_ADDER_12x12_1_ADDER_8x8_1_ADDER_6x6_1_4x4_1_HA_1_N11593)     .8809 

(VEDIC_8x8_1_ADDER_12x12_1_ADDER_8x8_1_ADDER_6x6_1_4x4_1_HA_1_N11628)    5.0000 

(VEDIC_8x8_1_ADDER_12x12_2_ADDER_8x8_1_ADDER_6x6_1_4x4_1_FA_1_N00311)     .0274 

(VEDIC_8x8_1_ADDER_12x12_2_ADDER_8x8_1_ADDER_6x6_1_4x4_1_FA_1_N00946) 150.9E-09 

(VEDIC_8x8_1_ADDER_12x12_2_ADDER_8x8_1_ADDER_6x6_1_4x4_1_FA_1_N01015)     .0010 

(VEDIC_8x8_1_ADDER_12x12_2_ADDER_8x8_1_ADDER_6x6_1_4x4_1_FA_1_N01184)    4.9999 

(VEDIC_8x8_1_ADDER_12x12_2_ADDER_8x8_1_ADDER_6x6_1_4x4_1_FA_1_N01242) 50.68E-09 

(VEDIC_8x8_1_ADDER_12x12_2_ADDER_8x8_1_ADDER_6x6_1_4x4_1_FA_2_N00311)     .0274 

(VEDIC_8x8_1_ADDER_12x12_2_ADDER_8x8_1_ADDER_6x6_1_4x4_1_FA_2_N00946) 150.9E-09 

(VEDIC_8x8_1_ADDER_12x12_2_ADDER_8x8_1_ADDER_6x6_1_4x4_1_FA_2_N01015)     .0010 

(VEDIC_8x8_1_ADDER_12x12_2_ADDER_8x8_1_ADDER_6x6_1_4x4_1_FA_2_N01184)    4.9999 

(VEDIC_8x8_1_ADDER_12x12_2_ADDER_8x8_1_ADDER_6x6_1_4x4_1_FA_2_N01242) 50.68E-09 

(VEDIC_8x8_1_ADDER_12x12_2_ADDER_8x8_1_ADDER_6x6_1_4x4_1_FA_3_N00311)     .0274 

(VEDIC_8x8_1_ADDER_12x12_2_ADDER_8x8_1_ADDER_6x6_1_4x4_1_FA_3_N00946) 150.9E-09 

(VEDIC_8x8_1_ADDER_12x12_2_ADDER_8x8_1_ADDER_6x6_1_4x4_1_FA_3_N01015)     .0010 

(VEDIC_8x8_1_ADDER_12x12_2_ADDER_8x8_1_ADDER_6x6_1_4x4_1_FA_3_N01184)    4.9999 

(VEDIC_8x8_1_ADDER_12x12_2_ADDER_8x8_1_ADDER_6x6_1_4x4_1_FA_3_N01242) 50.68E-09 

(VEDIC_8x8_1_ADDER_12x12_2_ADDER_8x8_1_ADDER_6x6_1_4x4_1_HA_1_N06008)     .0137 

(VEDIC_8x8_1_ADDER_12x12_2_ADDER_8x8_1_ADDER_6x6_1_4x4_1_HA_1_N06579)     .0285 

(VEDIC_8x8_1_ADDER_12x12_2_ADDER_8x8_1_ADDER_6x6_1_4x4_1_HA_1_N09076)     .0146 

(VEDIC_8x8_1_ADDER_12x12_2_ADDER_8x8_1_ADDER_6x6_1_4x4_1_HA_1_N09191)     .0132 

(VEDIC_8x8_1_ADDER_12x12_2_ADDER_8x8_1_ADDER_6x6_1_4x4_1_HA_1_N09404)    4.9934 

(VEDIC_8x8_1_ADDER_12x12_2_ADDER_8x8_1_ADDER_6x6_1_4x4_1_HA_1_N11593)     .0147 

(VEDIC_8x8_1_ADDER_12x12_2_ADDER_8x8_1_ADDER_6x6_1_4x4_1_HA_1_N11628) 26.88E-06 

(VEDIC_8x8_1_ADDER_12x12_1_ADDER_8x8_1_ADDER_6x6_1_4x4_1_FA_1_HA1_N06008)    2.9

(VEDIC_8x8_1_ADDER_12x12_1_ADDER_8x8_1_ADDER_6x6_1_4x4_1_FA_1_HA1_N06579)    5.0

(VEDIC_8x8_1_ADDER_12x12_1_ADDER_8x8_1_ADDER_6x6_1_4x4_1_FA_1_HA1_N09076)     .0

(VEDIC_8x8_1_ADDER_12x12_1_ADDER_8x8_1_ADDER_6x6_1_4x4_1_FA_1_HA1_N09191)    2.9

(VEDIC_8x8_1_ADDER_12x12_1_ADDER_8x8_1_ADDER_6x6_1_4x4_1_FA_1_HA1_N09404)    4.9

(VEDIC_8x8_1_ADDER_12x12_1_ADDER_8x8_1_ADDER_6x6_1_4x4_1_FA_1_HA1_N11593)     .8

(VEDIC_8x8_1_ADDER_12x12_1_ADDER_8x8_1_ADDER_6x6_1_4x4_1_FA_1_HA1_N11628)    5.0

(VEDIC_8x8_1_ADDER_12x12_1_ADDER_8x8_1_ADDER_6x6_1_4x4_1_FA_1_HA2_N06008) 257.7E

(VEDIC_8x8_1_ADDER_12x12_1_ADDER_8x8_1_ADDER_6x6_1_4x4_1_FA_1_HA2_N06579)    5.0

(VEDIC_8x8_1_ADDER_12x12_1_ADDER_8x8_1_ADDER_6x6_1_4x4_1_FA_1_HA2_N09076)    4.9

(VEDIC_8x8_1_ADDER_12x12_1_ADDER_8x8_1_ADDER_6x6_1_4x4_1_FA_1_HA2_N09191) 257.7E

(VEDIC_8x8_1_ADDER_12x12_1_ADDER_8x8_1_ADDER_6x6_1_4x4_1_FA_1_HA2_N09404)    4.9

(VEDIC_8x8_1_ADDER_12x12_1_ADDER_8x8_1_ADDER_6x6_1_4x4_1_FA_1_HA2_N11593)    5.0

(VEDIC_8x8_1_ADDER_12x12_1_ADDER_8x8_1_ADDER_6x6_1_4x4_1_FA_1_HA2_N11628)     .0

(VEDIC_8x8_1_ADDER_12x12_1_ADDER_8x8_1_ADDER_6x6_1_4x4_1_FA_2_HA1_N06008)    2.9

(VEDIC_8x8_1_ADDER_12x12_1_ADDER_8x8_1_ADDER_6x6_1_4x4_1_FA_2_HA1_N06579)    5.0

(VEDIC_8x8_1_ADDER_12x12_1_ADDER_8x8_1_ADDER_6x6_1_4x4_1_FA_2_HA1_N09076)     .0

(VEDIC_8x8_1_ADDER_12x12_1_ADDER_8x8_1_ADDER_6x6_1_4x4_1_FA_2_HA1_N09191)    2.9

(VEDIC_8x8_1_ADDER_12x12_1_ADDER_8x8_1_ADDER_6x6_1_4x4_1_FA_2_HA1_N09404)    4.9

(VEDIC_8x8_1_ADDER_12x12_1_ADDER_8x8_1_ADDER_6x6_1_4x4_1_FA_2_HA1_N11593)     .8

(VEDIC_8x8_1_ADDER_12x12_1_ADDER_8x8_1_ADDER_6x6_1_4x4_1_FA_2_HA1_N11628)    5.0

(VEDIC_8x8_1_ADDER_12x12_1_ADDER_8x8_1_ADDER_6x6_1_4x4_1_FA_2_HA2_N06008) 257.7E

(VEDIC_8x8_1_ADDER_12x12_1_ADDER_8x8_1_ADDER_6x6_1_4x4_1_FA_2_HA2_N06579)    5.0

(VEDIC_8x8_1_ADDER_12x12_1_ADDER_8x8_1_ADDER_6x6_1_4x4_1_FA_2_HA2_N09076)    4.9

(VEDIC_8x8_1_ADDER_12x12_1_ADDER_8x8_1_ADDER_6x6_1_4x4_1_FA_2_HA2_N09191) 257.7E

(VEDIC_8x8_1_ADDER_12x12_1_ADDER_8x8_1_ADDER_6x6_1_4x4_1_FA_2_HA2_N09404)    4.9

(VEDIC_8x8_1_ADDER_12x12_1_ADDER_8x8_1_ADDER_6x6_1_4x4_1_FA_2_HA2_N11593)    5.0

(VEDIC_8x8_1_ADDER_12x12_1_ADDER_8x8_1_ADDER_6x6_1_4x4_1_FA_2_HA2_N11628)     .0

(VEDIC_8x8_1_ADDER_12x12_1_ADDER_8x8_1_ADDER_6x6_1_4x4_1_FA_3_HA1_N06008)    2.9

(VEDIC_8x8_1_ADDER_12x12_1_ADDER_8x8_1_ADDER_6x6_1_4x4_1_FA_3_HA1_N06579)    5.0

(VEDIC_8x8_1_ADDER_12x12_1_ADDER_8x8_1_ADDER_6x6_1_4x4_1_FA_3_HA1_N09076)     .0

(VEDIC_8x8_1_ADDER_12x12_1_ADDER_8x8_1_ADDER_6x6_1_4x4_1_FA_3_HA1_N09191)    2.9

(VEDIC_8x8_1_ADDER_12x12_1_ADDER_8x8_1_ADDER_6x6_1_4x4_1_FA_3_HA1_N09404)    4.9

(VEDIC_8x8_1_ADDER_12x12_1_ADDER_8x8_1_ADDER_6x6_1_4x4_1_FA_3_HA1_N11593)     .8

(VEDIC_8x8_1_ADDER_12x12_1_ADDER_8x8_1_ADDER_6x6_1_4x4_1_FA_3_HA1_N11628)    5.0

(VEDIC_8x8_1_ADDER_12x12_1_ADDER_8x8_1_ADDER_6x6_1_4x4_1_FA_3_HA2_N06008) 257.7E

(VEDIC_8x8_1_ADDER_12x12_1_ADDER_8x8_1_ADDER_6x6_1_4x4_1_FA_3_HA2_N06579)    5.0

(VEDIC_8x8_1_ADDER_12x12_1_ADDER_8x8_1_ADDER_6x6_1_4x4_1_FA_3_HA2_N09076)    4.9

(VEDIC_8x8_1_ADDER_12x12_1_ADDER_8x8_1_ADDER_6x6_1_4x4_1_FA_3_HA2_N09191) 257.7E

(VEDIC_8x8_1_ADDER_12x12_1_ADDER_8x8_1_ADDER_6x6_1_4x4_1_FA_3_HA2_N09404)    4.9

(VEDIC_8x8_1_ADDER_12x12_1_ADDER_8x8_1_ADDER_6x6_1_4x4_1_FA_3_HA2_N11593)    5.0

(VEDIC_8x8_1_ADDER_12x12_1_ADDER_8x8_1_ADDER_6x6_1_4x4_1_FA_3_HA2_N11628)     .0

(VEDIC_8x8_1_ADDER_12x12_2_ADDER_8x8_1_ADDER_6x6_1_4x4_1_FA_1_HA1_N06008)     .0

(VEDIC_8x8_1_ADDER_12x12_2_ADDER_8x8_1_ADDER_6x6_1_4x4_1_FA_1_HA1_N06579)     .0

(VEDIC_8x8_1_ADDER_12x12_2_ADDER_8x8_1_ADDER_6x6_1_4x4_1_FA_1_HA1_N09076)     .0

(VEDIC_8x8_1_ADDER_12x12_2_ADDER_8x8_1_ADDER_6x6_1_4x4_1_FA_1_HA1_N09191)     .0

(VEDIC_8x8_1_ADDER_12x12_2_ADDER_8x8_1_ADDER_6x6_1_4x4_1_FA_1_HA1_N09404)    4.9

(VEDIC_8x8_1_ADDER_12x12_2_ADDER_8x8_1_ADDER_6x6_1_4x4_1_FA_1_HA1_N11593)     .0

(VEDIC_8x8_1_ADDER_12x12_2_ADDER_8x8_1_ADDER_6x6_1_4x4_1_FA_1_HA1_N11628) 26.88E

(VEDIC_8x8_1_ADDER_12x12_2_ADDER_8x8_1_ADDER_6x6_1_4x4_1_FA_1_HA2_N06008)    4.9

(VEDIC_8x8_1_ADDER_12x12_2_ADDER_8x8_1_ADDER_6x6_1_4x4_1_FA_1_HA2_N06579)    4.9

(VEDIC_8x8_1_ADDER_12x12_2_ADDER_8x8_1_ADDER_6x6_1_4x4_1_FA_1_HA2_N09076) 257.1E

(VEDIC_8x8_1_ADDER_12x12_2_ADDER_8x8_1_ADDER_6x6_1_4x4_1_FA_1_HA2_N09191)    4.9

(VEDIC_8x8_1_ADDER_12x12_2_ADDER_8x8_1_ADDER_6x6_1_4x4_1_FA_1_HA2_N09404)    4.9

(VEDIC_8x8_1_ADDER_12x12_2_ADDER_8x8_1_ADDER_6x6_1_4x4_1_FA_1_HA2_N11593) 50.77E

(VEDIC_8x8_1_ADDER_12x12_2_ADDER_8x8_1_ADDER_6x6_1_4x4_1_FA_1_HA2_N11628)    4.9

(VEDIC_8x8_1_ADDER_12x12_2_ADDER_8x8_1_ADDER_6x6_1_4x4_1_FA_2_HA1_N06008)     .0

(VEDIC_8x8_1_ADDER_12x12_2_ADDER_8x8_1_ADDER_6x6_1_4x4_1_FA_2_HA1_N06579)     .0

(VEDIC_8x8_1_ADDER_12x12_2_ADDER_8x8_1_ADDER_6x6_1_4x4_1_FA_2_HA1_N09076)     .0

(VEDIC_8x8_1_ADDER_12x12_2_ADDER_8x8_1_ADDER_6x6_1_4x4_1_FA_2_HA1_N09191)     .0

(VEDIC_8x8_1_ADDER_12x12_2_ADDER_8x8_1_ADDER_6x6_1_4x4_1_FA_2_HA1_N09404)    4.9

(VEDIC_8x8_1_ADDER_12x12_2_ADDER_8x8_1_ADDER_6x6_1_4x4_1_FA_2_HA1_N11593)     .0

(VEDIC_8x8_1_ADDER_12x12_2_ADDER_8x8_1_ADDER_6x6_1_4x4_1_FA_2_HA1_N11628) 26.88E

(VEDIC_8x8_1_ADDER_12x12_2_ADDER_8x8_1_ADDER_6x6_1_4x4_1_FA_2_HA2_N06008)    4.9

(VEDIC_8x8_1_ADDER_12x12_2_ADDER_8x8_1_ADDER_6x6_1_4x4_1_FA_2_HA2_N06579)    4.9

(VEDIC_8x8_1_ADDER_12x12_2_ADDER_8x8_1_ADDER_6x6_1_4x4_1_FA_2_HA2_N09076) 251.0E

(VEDIC_8x8_1_ADDER_12x12_2_ADDER_8x8_1_ADDER_6x6_1_4x4_1_FA_2_HA2_N09191)    4.9

(VEDIC_8x8_1_ADDER_12x12_2_ADDER_8x8_1_ADDER_6x6_1_4x4_1_FA_2_HA2_N09404)    4.9

(VEDIC_8x8_1_ADDER_12x12_2_ADDER_8x8_1_ADDER_6x6_1_4x4_1_FA_2_HA2_N11593) 50.10E

(VEDIC_8x8_1_ADDER_12x12_2_ADDER_8x8_1_ADDER_6x6_1_4x4_1_FA_2_HA2_N11628)    4.9

(VEDIC_8x8_1_ADDER_12x12_2_ADDER_8x8_1_ADDER_6x6_1_4x4_1_FA_3_HA1_N06008)     .0

(VEDIC_8x8_1_ADDER_12x12_2_ADDER_8x8_1_ADDER_6x6_1_4x4_1_FA_3_HA1_N06579)     .0

(VEDIC_8x8_1_ADDER_12x12_2_ADDER_8x8_1_ADDER_6x6_1_4x4_1_FA_3_HA1_N09076)     .0

(VEDIC_8x8_1_ADDER_12x12_2_ADDER_8x8_1_ADDER_6x6_1_4x4_1_FA_3_HA1_N09191)     .0

(VEDIC_8x8_1_ADDER_12x12_2_ADDER_8x8_1_ADDER_6x6_1_4x4_1_FA_3_HA1_N09404)    4.9

(VEDIC_8x8_1_ADDER_12x12_2_ADDER_8x8_1_ADDER_6x6_1_4x4_1_FA_3_HA1_N11593)     .0

(VEDIC_8x8_1_ADDER_12x12_2_ADDER_8x8_1_ADDER_6x6_1_4x4_1_FA_3_HA1_N11628) 26.88E

(VEDIC_8x8_1_ADDER_12x12_2_ADDER_8x8_1_ADDER_6x6_1_4x4_1_FA_3_HA2_N06008)    4.9

(VEDIC_8x8_1_ADDER_12x12_2_ADDER_8x8_1_ADDER_6x6_1_4x4_1_FA_3_HA2_N06579)    4.9

(VEDIC_8x8_1_ADDER_12x12_2_ADDER_8x8_1_ADDER_6x6_1_4x4_1_FA_3_HA2_N09076) 251.0E

(VEDIC_8x8_1_ADDER_12x12_2_ADDER_8x8_1_ADDER_6x6_1_4x4_1_FA_3_HA2_N09191)    4.9

(VEDIC_8x8_1_ADDER_12x12_2_ADDER_8x8_1_ADDER_6x6_1_4x4_1_FA_3_HA2_N09404)    4.9

(VEDIC_8x8_1_ADDER_12x12_2_ADDER_8x8_1_ADDER_6x6_1_4x4_1_FA_3_HA2_N11593) 50.10E

(VEDIC_8x8_1_ADDER_12x12_2_ADDER_8x8_1_ADDER_6x6_1_4x4_1_FA_3_HA2_N11628)    4.9




    VOLTAGE SOURCE CURRENTS
    NAME         CURRENT

    V_V3        -1.222E-03

    TOTAL POWER DISSIPATION   6.11E-03  WATTS



          JOB CONCLUDED

          TOTAL JOB TIME           38.77
