
**** 10/31/20 10:23:26 ********* PSpice 9.2 (Mar 2000) ******** ID# 1 ********

 ** Profile: "SCHEMATIC1-test"  [ C:\Users\Karan\Documents\PSpice\VLSI\vlsi-schematic1-test.sim ] 


 ****     CIRCUIT DESCRIPTION


******************************************************************************




** Creating circuit file "vlsi-schematic1-test.sim.cir" 
** WARNING: THIS AUTOMATICALLY GENERATED FILE MAY BE OVERWRITTEN BY SUBSEQUENT SIMULATIONS

*Libraries: 
* Local Libraries :
* From [PSPICE NETLIST] section of C:\Program Files\Orcad 9.1\PSpice\PSpice.ini file:
.lib "nom.lib" 

*Analysis directives: 
.TRAN  0 100ns 0 1ns 
.PROBE V(*) I(*) W(*) D(*) NOISE(*) 
.INC ".\vlsi-SCHEMATIC1.net" 



**** INCLUDING vlsi-SCHEMATIC1.net ****
* source VLSI
M_M2         N00277 N00505 0 0 MbreakN           
M_M6         N00505 N00505 N00207 N00505 MbreakP           
M_M3         N00505 N00207 N04710 N00505 MbreakP           
M_M4         N04710 N00207 0 0 MbreakN           
V_V1         N00505 0 5Vdc
M_M5         N00505 N00505 N00207 N00505 MbreakP           
M_M1         N00207 N00505 N00277 0 MbreakN           

**** RESUMING vlsi-schematic1-test.sim.cir ****
.END

**** 10/31/20 10:23:26 ********* PSpice 9.2 (Mar 2000) ******** ID# 1 ********

 ** Profile: "SCHEMATIC1-test"  [ C:\Users\Karan\Documents\PSpice\VLSI\vlsi-schematic1-test.sim ] 


 ****     MOSFET MODEL PARAMETERS


******************************************************************************




               MbreakN         MbreakP         
               NMOS            PMOS            
       LEVEL    1               1            
           L  100.000000E-06  100.000000E-06 
           W  100.000000E-06  100.000000E-06 
         VTO    0               0            
          KP   20.000000E-06   20.000000E-06 
       GAMMA    0               0            
         PHI     .6              .6          
      LAMBDA    0               0            
          IS   10.000000E-15   10.000000E-15 
          JS    0               0            
          PB     .8              .8          
        PBSW     .8              .8          
          CJ    0               0            
        CJSW    0               0            
        CGSO    0               0            
        CGDO    0               0            
        CGBO    0               0            
         TOX    0               0            
          XJ    0               0            
       UCRIT   10.000000E+03   10.000000E+03 
      DIOMOD    1               1            
         VFB    0               0            
        LETA    0               0            
        WETA    0               0            
          U0    0               0            
        TEMP    0               0            
         VDD    0               0            
       XPART    0               0            


**** 10/31/20 10:23:26 ********* PSpice 9.2 (Mar 2000) ******** ID# 1 ********

 ** Profile: "SCHEMATIC1-test"  [ C:\Users\Karan\Documents\PSpice\VLSI\vlsi-schematic1-test.sim ] 


 ****     INITIAL TRANSIENT SOLUTION       TEMPERATURE =   27.000 DEG C


******************************************************************************



 NODE   VOLTAGE     NODE   VOLTAGE     NODE   VOLTAGE     NODE   VOLTAGE


(N00207) 200.4E-09 (N00277) 100.2E-09 (N00505)    5.0000 (N04710)    5.0000 




    VOLTAGE SOURCE CURRENTS
    NAME         CURRENT

    V_V1        -1.503E-11

    TOTAL POWER DISSIPATION   7.52E-11  WATTS



          JOB CONCLUDED

          TOTAL JOB TIME             .06
